*SPEF "ieee 1481-1999"
*DESIGN "TOP_digital"
*DATE "11:11:11 Fri 11 11, 1111"
*VENDOR "OpenRCX"
*PROGRAM "Parallel Extraction"
*VERSION "1.0"
*DESIGN_FLOW "NAME_SCOPE LOCAL" "PIN_CAP NONE"
*DIVIDER /
*DELIMITER :
*BUS_DELIMITER []
*T_UNIT 1 NS
*C_UNIT 1 PF
*R_UNIT 1 OHM
*L_UNIT 1 HENRY

*NAME_MAP
*1 analog_io[0]
*2 analog_io[10]
*3 analog_io[11]
*4 analog_io[12]
*5 analog_io[13]
*6 analog_io[14]
*7 analog_io[15]
*8 analog_io[16]
*9 analog_io[17]
*10 analog_io[18]
*11 analog_io[19]
*12 analog_io[1]
*13 analog_io[20]
*14 analog_io[21]
*15 analog_io[22]
*16 analog_io[23]
*17 analog_io[24]
*18 analog_io[25]
*19 analog_io[26]
*20 analog_io[27]
*21 analog_io[28]
*22 analog_io[2]
*23 analog_io[3]
*24 analog_io[4]
*25 analog_io[5]
*26 analog_io[6]
*27 analog_io[7]
*28 analog_io[8]
*29 analog_io[9]
*30 analog_trigger_in
*31 analog_trigger_out
*32 io_in[0]
*33 io_in[10]
*34 io_in[11]
*35 io_in[12]
*36 io_in[13]
*37 io_in[14]
*38 io_in[15]
*39 io_in[16]
*40 io_in[17]
*41 io_in[18]
*42 io_in[19]
*43 io_in[1]
*44 io_in[20]
*45 io_in[21]
*46 io_in[22]
*47 io_in[23]
*48 io_in[24]
*49 io_in[25]
*50 io_in[26]
*51 io_in[27]
*52 io_in[28]
*53 io_in[29]
*54 io_in[2]
*55 io_in[30]
*56 io_in[31]
*57 io_in[32]
*58 io_in[33]
*59 io_in[34]
*60 io_in[35]
*61 io_in[36]
*62 io_in[37]
*63 io_in[3]
*64 io_in[4]
*65 io_in[5]
*66 io_in[6]
*67 io_in[7]
*68 io_in[8]
*69 io_in[9]
*70 io_oeb[0]
*71 io_oeb[10]
*72 io_oeb[11]
*73 io_oeb[12]
*74 io_oeb[13]
*75 io_oeb[14]
*76 io_oeb[15]
*77 io_oeb[16]
*78 io_oeb[17]
*79 io_oeb[18]
*80 io_oeb[19]
*81 io_oeb[1]
*82 io_oeb[20]
*83 io_oeb[21]
*84 io_oeb[22]
*85 io_oeb[23]
*86 io_oeb[24]
*87 io_oeb[25]
*88 io_oeb[26]
*89 io_oeb[27]
*90 io_oeb[28]
*91 io_oeb[29]
*92 io_oeb[2]
*93 io_oeb[30]
*94 io_oeb[31]
*95 io_oeb[32]
*96 io_oeb[33]
*97 io_oeb[34]
*98 io_oeb[35]
*99 io_oeb[36]
*100 io_oeb[37]
*101 io_oeb[3]
*102 io_oeb[4]
*103 io_oeb[5]
*104 io_oeb[6]
*105 io_oeb[7]
*106 io_oeb[8]
*107 io_oeb[9]
*108 io_out[0]
*109 io_out[10]
*110 io_out[11]
*111 io_out[12]
*112 io_out[13]
*113 io_out[14]
*114 io_out[15]
*115 io_out[16]
*116 io_out[17]
*117 io_out[18]
*118 io_out[19]
*119 io_out[1]
*120 io_out[20]
*121 io_out[21]
*122 io_out[22]
*123 io_out[23]
*124 io_out[24]
*125 io_out[25]
*126 io_out[26]
*127 io_out[27]
*128 io_out[28]
*129 io_out[29]
*130 io_out[2]
*131 io_out[30]
*132 io_out[31]
*133 io_out[32]
*134 io_out[33]
*135 io_out[34]
*136 io_out[35]
*137 io_out[36]
*138 io_out[37]
*139 io_out[3]
*140 io_out[4]
*141 io_out[5]
*142 io_out[6]
*143 io_out[7]
*144 io_out[8]
*145 io_out[9]
*146 la_data_in[0]
*147 la_data_in[100]
*148 la_data_in[101]
*149 la_data_in[102]
*150 la_data_in[103]
*151 la_data_in[104]
*152 la_data_in[105]
*153 la_data_in[106]
*154 la_data_in[107]
*155 la_data_in[108]
*156 la_data_in[109]
*157 la_data_in[10]
*158 la_data_in[110]
*159 la_data_in[111]
*160 la_data_in[112]
*161 la_data_in[113]
*162 la_data_in[114]
*163 la_data_in[115]
*164 la_data_in[116]
*165 la_data_in[117]
*166 la_data_in[118]
*167 la_data_in[119]
*168 la_data_in[11]
*169 la_data_in[120]
*170 la_data_in[121]
*171 la_data_in[122]
*172 la_data_in[123]
*173 la_data_in[124]
*174 la_data_in[125]
*175 la_data_in[126]
*176 la_data_in[127]
*177 la_data_in[12]
*178 la_data_in[13]
*179 la_data_in[14]
*180 la_data_in[15]
*181 la_data_in[16]
*182 la_data_in[17]
*183 la_data_in[18]
*184 la_data_in[19]
*185 la_data_in[1]
*186 la_data_in[20]
*187 la_data_in[21]
*188 la_data_in[22]
*189 la_data_in[23]
*190 la_data_in[24]
*191 la_data_in[25]
*192 la_data_in[26]
*193 la_data_in[27]
*194 la_data_in[28]
*195 la_data_in[29]
*196 la_data_in[2]
*197 la_data_in[30]
*198 la_data_in[31]
*199 la_data_in[32]
*200 la_data_in[33]
*201 la_data_in[34]
*202 la_data_in[35]
*203 la_data_in[36]
*204 la_data_in[37]
*205 la_data_in[38]
*206 la_data_in[39]
*207 la_data_in[3]
*208 la_data_in[40]
*209 la_data_in[41]
*210 la_data_in[42]
*211 la_data_in[43]
*212 la_data_in[44]
*213 la_data_in[45]
*214 la_data_in[46]
*215 la_data_in[47]
*216 la_data_in[48]
*217 la_data_in[49]
*218 la_data_in[4]
*219 la_data_in[50]
*220 la_data_in[51]
*221 la_data_in[52]
*222 la_data_in[53]
*223 la_data_in[54]
*224 la_data_in[55]
*225 la_data_in[56]
*226 la_data_in[57]
*227 la_data_in[58]
*228 la_data_in[59]
*229 la_data_in[5]
*230 la_data_in[60]
*231 la_data_in[61]
*232 la_data_in[62]
*233 la_data_in[63]
*234 la_data_in[64]
*235 la_data_in[65]
*236 la_data_in[66]
*237 la_data_in[67]
*238 la_data_in[68]
*239 la_data_in[69]
*240 la_data_in[6]
*241 la_data_in[70]
*242 la_data_in[71]
*243 la_data_in[72]
*244 la_data_in[73]
*245 la_data_in[74]
*246 la_data_in[75]
*247 la_data_in[76]
*248 la_data_in[77]
*249 la_data_in[78]
*250 la_data_in[79]
*251 la_data_in[7]
*252 la_data_in[80]
*253 la_data_in[81]
*254 la_data_in[82]
*255 la_data_in[83]
*256 la_data_in[84]
*257 la_data_in[85]
*258 la_data_in[86]
*259 la_data_in[87]
*260 la_data_in[88]
*261 la_data_in[89]
*262 la_data_in[8]
*263 la_data_in[90]
*264 la_data_in[91]
*265 la_data_in[92]
*266 la_data_in[93]
*267 la_data_in[94]
*268 la_data_in[95]
*269 la_data_in[96]
*270 la_data_in[97]
*271 la_data_in[98]
*272 la_data_in[99]
*273 la_data_in[9]
*274 la_data_out[0]
*275 la_data_out[100]
*276 la_data_out[101]
*277 la_data_out[102]
*278 la_data_out[103]
*279 la_data_out[104]
*280 la_data_out[105]
*281 la_data_out[106]
*282 la_data_out[107]
*283 la_data_out[108]
*284 la_data_out[109]
*285 la_data_out[10]
*286 la_data_out[110]
*287 la_data_out[111]
*288 la_data_out[112]
*289 la_data_out[113]
*290 la_data_out[114]
*291 la_data_out[115]
*292 la_data_out[116]
*293 la_data_out[117]
*294 la_data_out[118]
*295 la_data_out[119]
*296 la_data_out[11]
*297 la_data_out[120]
*298 la_data_out[121]
*299 la_data_out[122]
*300 la_data_out[123]
*301 la_data_out[124]
*302 la_data_out[125]
*303 la_data_out[126]
*304 la_data_out[127]
*305 la_data_out[12]
*306 la_data_out[13]
*307 la_data_out[14]
*308 la_data_out[15]
*309 la_data_out[16]
*310 la_data_out[17]
*311 la_data_out[18]
*312 la_data_out[19]
*313 la_data_out[1]
*314 la_data_out[20]
*315 la_data_out[21]
*316 la_data_out[22]
*317 la_data_out[23]
*318 la_data_out[24]
*319 la_data_out[25]
*320 la_data_out[26]
*321 la_data_out[27]
*322 la_data_out[28]
*323 la_data_out[29]
*324 la_data_out[2]
*325 la_data_out[30]
*326 la_data_out[31]
*327 la_data_out[32]
*328 la_data_out[33]
*329 la_data_out[34]
*330 la_data_out[35]
*331 la_data_out[36]
*332 la_data_out[37]
*333 la_data_out[38]
*334 la_data_out[39]
*335 la_data_out[3]
*336 la_data_out[40]
*337 la_data_out[41]
*338 la_data_out[42]
*339 la_data_out[43]
*340 la_data_out[44]
*341 la_data_out[45]
*342 la_data_out[46]
*343 la_data_out[47]
*344 la_data_out[48]
*345 la_data_out[49]
*346 la_data_out[4]
*347 la_data_out[50]
*348 la_data_out[51]
*349 la_data_out[52]
*350 la_data_out[53]
*351 la_data_out[54]
*352 la_data_out[55]
*353 la_data_out[56]
*354 la_data_out[57]
*355 la_data_out[58]
*356 la_data_out[59]
*357 la_data_out[5]
*358 la_data_out[60]
*359 la_data_out[61]
*360 la_data_out[62]
*361 la_data_out[63]
*362 la_data_out[64]
*363 la_data_out[65]
*364 la_data_out[66]
*365 la_data_out[67]
*366 la_data_out[68]
*367 la_data_out[69]
*368 la_data_out[6]
*369 la_data_out[70]
*370 la_data_out[71]
*371 la_data_out[72]
*372 la_data_out[73]
*373 la_data_out[74]
*374 la_data_out[75]
*375 la_data_out[76]
*376 la_data_out[77]
*377 la_data_out[78]
*378 la_data_out[79]
*379 la_data_out[7]
*380 la_data_out[80]
*381 la_data_out[81]
*382 la_data_out[82]
*383 la_data_out[83]
*384 la_data_out[84]
*385 la_data_out[85]
*386 la_data_out[86]
*387 la_data_out[87]
*388 la_data_out[88]
*389 la_data_out[89]
*390 la_data_out[8]
*391 la_data_out[90]
*392 la_data_out[91]
*393 la_data_out[92]
*394 la_data_out[93]
*395 la_data_out[94]
*396 la_data_out[95]
*397 la_data_out[96]
*398 la_data_out[97]
*399 la_data_out[98]
*400 la_data_out[99]
*401 la_data_out[9]
*402 la_oenb[0]
*403 la_oenb[100]
*404 la_oenb[101]
*405 la_oenb[102]
*406 la_oenb[103]
*407 la_oenb[104]
*408 la_oenb[105]
*409 la_oenb[106]
*410 la_oenb[107]
*411 la_oenb[108]
*412 la_oenb[109]
*413 la_oenb[10]
*414 la_oenb[110]
*415 la_oenb[111]
*416 la_oenb[112]
*417 la_oenb[113]
*418 la_oenb[114]
*419 la_oenb[115]
*420 la_oenb[116]
*421 la_oenb[117]
*422 la_oenb[118]
*423 la_oenb[119]
*424 la_oenb[11]
*425 la_oenb[120]
*426 la_oenb[121]
*427 la_oenb[122]
*428 la_oenb[123]
*429 la_oenb[124]
*430 la_oenb[125]
*431 la_oenb[126]
*432 la_oenb[127]
*433 la_oenb[12]
*434 la_oenb[13]
*435 la_oenb[14]
*436 la_oenb[15]
*437 la_oenb[16]
*438 la_oenb[17]
*439 la_oenb[18]
*440 la_oenb[19]
*441 la_oenb[1]
*442 la_oenb[20]
*443 la_oenb[21]
*444 la_oenb[22]
*445 la_oenb[23]
*446 la_oenb[24]
*447 la_oenb[25]
*448 la_oenb[26]
*449 la_oenb[27]
*450 la_oenb[28]
*451 la_oenb[29]
*452 la_oenb[2]
*453 la_oenb[30]
*454 la_oenb[31]
*455 la_oenb[32]
*456 la_oenb[33]
*457 la_oenb[34]
*458 la_oenb[35]
*459 la_oenb[36]
*460 la_oenb[37]
*461 la_oenb[38]
*462 la_oenb[39]
*463 la_oenb[3]
*464 la_oenb[40]
*465 la_oenb[41]
*466 la_oenb[42]
*467 la_oenb[43]
*468 la_oenb[44]
*469 la_oenb[45]
*470 la_oenb[46]
*471 la_oenb[47]
*472 la_oenb[48]
*473 la_oenb[49]
*474 la_oenb[4]
*475 la_oenb[50]
*476 la_oenb[51]
*477 la_oenb[52]
*478 la_oenb[53]
*479 la_oenb[54]
*480 la_oenb[55]
*481 la_oenb[56]
*482 la_oenb[57]
*483 la_oenb[58]
*484 la_oenb[59]
*485 la_oenb[5]
*486 la_oenb[60]
*487 la_oenb[61]
*488 la_oenb[62]
*489 la_oenb[63]
*490 la_oenb[64]
*491 la_oenb[65]
*492 la_oenb[66]
*493 la_oenb[67]
*494 la_oenb[68]
*495 la_oenb[69]
*496 la_oenb[6]
*497 la_oenb[70]
*498 la_oenb[71]
*499 la_oenb[72]
*500 la_oenb[73]
*501 la_oenb[74]
*502 la_oenb[75]
*503 la_oenb[76]
*504 la_oenb[77]
*505 la_oenb[78]
*506 la_oenb[79]
*507 la_oenb[7]
*508 la_oenb[80]
*509 la_oenb[81]
*510 la_oenb[82]
*511 la_oenb[83]
*512 la_oenb[84]
*513 la_oenb[85]
*514 la_oenb[86]
*515 la_oenb[87]
*516 la_oenb[88]
*517 la_oenb[89]
*518 la_oenb[8]
*519 la_oenb[90]
*520 la_oenb[91]
*521 la_oenb[92]
*522 la_oenb[93]
*523 la_oenb[94]
*524 la_oenb[95]
*525 la_oenb[96]
*526 la_oenb[97]
*527 la_oenb[98]
*528 la_oenb[99]
*529 la_oenb[9]
*530 pwm_fall_out
*531 pwm_rise_out
*532 user_clock2
*533 user_irq[0]
*534 user_irq[1]
*535 user_irq[2]
*544 wb_clk_i
*545 wb_rst_i
*546 wbs_ack_o
*547 wbs_adr_i[0]
*548 wbs_adr_i[10]
*549 wbs_adr_i[11]
*550 wbs_adr_i[12]
*551 wbs_adr_i[13]
*552 wbs_adr_i[14]
*553 wbs_adr_i[15]
*554 wbs_adr_i[16]
*555 wbs_adr_i[17]
*556 wbs_adr_i[18]
*557 wbs_adr_i[19]
*558 wbs_adr_i[1]
*559 wbs_adr_i[20]
*560 wbs_adr_i[21]
*561 wbs_adr_i[22]
*562 wbs_adr_i[23]
*563 wbs_adr_i[24]
*564 wbs_adr_i[25]
*565 wbs_adr_i[26]
*566 wbs_adr_i[27]
*567 wbs_adr_i[28]
*568 wbs_adr_i[29]
*569 wbs_adr_i[2]
*570 wbs_adr_i[30]
*571 wbs_adr_i[31]
*572 wbs_adr_i[3]
*573 wbs_adr_i[4]
*574 wbs_adr_i[5]
*575 wbs_adr_i[6]
*576 wbs_adr_i[7]
*577 wbs_adr_i[8]
*578 wbs_adr_i[9]
*579 wbs_cyc_i
*580 wbs_dat_i[0]
*581 wbs_dat_i[10]
*582 wbs_dat_i[11]
*583 wbs_dat_i[12]
*584 wbs_dat_i[13]
*585 wbs_dat_i[14]
*586 wbs_dat_i[15]
*587 wbs_dat_i[16]
*588 wbs_dat_i[17]
*589 wbs_dat_i[18]
*590 wbs_dat_i[19]
*591 wbs_dat_i[1]
*592 wbs_dat_i[20]
*593 wbs_dat_i[21]
*594 wbs_dat_i[22]
*595 wbs_dat_i[23]
*596 wbs_dat_i[24]
*597 wbs_dat_i[25]
*598 wbs_dat_i[26]
*599 wbs_dat_i[27]
*600 wbs_dat_i[28]
*601 wbs_dat_i[29]
*602 wbs_dat_i[2]
*603 wbs_dat_i[30]
*604 wbs_dat_i[31]
*605 wbs_dat_i[3]
*606 wbs_dat_i[4]
*607 wbs_dat_i[5]
*608 wbs_dat_i[6]
*609 wbs_dat_i[7]
*610 wbs_dat_i[8]
*611 wbs_dat_i[9]
*612 wbs_dat_o[0]
*613 wbs_dat_o[10]
*614 wbs_dat_o[11]
*615 wbs_dat_o[12]
*616 wbs_dat_o[13]
*617 wbs_dat_o[14]
*618 wbs_dat_o[15]
*619 wbs_dat_o[16]
*620 wbs_dat_o[17]
*621 wbs_dat_o[18]
*622 wbs_dat_o[19]
*623 wbs_dat_o[1]
*624 wbs_dat_o[20]
*625 wbs_dat_o[21]
*626 wbs_dat_o[22]
*627 wbs_dat_o[23]
*628 wbs_dat_o[24]
*629 wbs_dat_o[25]
*630 wbs_dat_o[26]
*631 wbs_dat_o[27]
*632 wbs_dat_o[28]
*633 wbs_dat_o[29]
*634 wbs_dat_o[2]
*635 wbs_dat_o[30]
*636 wbs_dat_o[31]
*637 wbs_dat_o[3]
*638 wbs_dat_o[4]
*639 wbs_dat_o[5]
*640 wbs_dat_o[6]
*641 wbs_dat_o[7]
*642 wbs_dat_o[8]
*643 wbs_dat_o[9]
*644 wbs_sel_i[0]
*645 wbs_sel_i[1]
*646 wbs_sel_i[2]
*647 wbs_sel_i[3]
*648 wbs_stb_i
*649 wbs_we_i
*650 _000_
*651 _001_
*652 _002_
*653 _003_
*654 _004_
*655 _005_
*656 _006_
*657 _007_
*658 _008_
*659 _009_
*660 _010_
*661 _011_
*662 _012_
*663 _013_
*664 _014_
*665 _015_
*666 _016_
*667 _017_
*668 _018_
*669 _019_
*670 _020_
*671 _021_
*672 _022_
*673 _023_
*674 _024_
*675 _025_
*676 _026_
*677 _027_
*678 _028_
*679 _029_
*680 _030_
*681 _031_
*682 _032_
*683 _033_
*684 _034_
*685 _035_
*686 _036_
*687 _037_
*688 _038_
*689 _039_
*690 _040_
*691 _041_
*692 _042_
*693 _043_
*694 _044_
*695 _045_
*696 _046_
*697 _047_
*698 _048_
*699 _049_
*700 _050_
*701 _051_
*702 _052_
*703 _053_
*704 _054_
*705 _055_
*706 _056_
*707 _057_
*708 _058_
*709 _059_
*710 _060_
*711 _061_
*712 _062_
*713 _063_
*714 _064_
*715 _065_
*716 _066_
*717 _067_
*718 _068_
*719 _069_
*720 _070_
*721 _071_
*722 _072_
*723 _073_
*724 _074_
*725 _075_
*726 _076_
*727 _077_
*728 _078_
*729 _079_
*730 _080_
*731 _081_
*732 _082_
*733 _083_
*734 _084_
*735 _085_
*736 _086_
*737 _087_
*738 _088_
*739 _089_
*740 _090_
*741 _091_
*742 _092_
*743 _093_
*744 _094_
*745 _095_
*746 net1
*747 net10
*748 net100
*749 net101
*750 net102
*751 net103
*752 net104
*753 net105
*754 net106
*755 net107
*756 net108
*757 net109
*758 net11
*759 net110
*760 net111
*761 net112
*762 net113
*763 net114
*764 net115
*765 net116
*766 net117
*767 net118
*768 net119
*769 net12
*770 net120
*771 net121
*772 net122
*773 net123
*774 net124
*775 net125
*776 net126
*777 net127
*778 net128
*779 net129
*780 net13
*781 net130
*782 net131
*783 net132
*784 net133
*785 net134
*786 net135
*787 net136
*788 net137
*789 net138
*790 net139
*791 net14
*792 net140
*793 net141
*794 net142
*795 net143
*796 net144
*797 net145
*798 net146
*799 net147
*800 net148
*801 net149
*802 net15
*803 net150
*804 net151
*805 net152
*806 net153
*807 net154
*808 net155
*809 net156
*810 net157
*811 net158
*812 net159
*813 net16
*814 net160
*815 net161
*816 net162
*817 net163
*818 net164
*819 net165
*820 net166
*821 net167
*822 net168
*823 net169
*824 net17
*825 net170
*826 net171
*827 net172
*828 net173
*829 net174
*830 net175
*831 net176
*832 net177
*833 net178
*834 net179
*835 net18
*836 net180
*837 net181
*838 net182
*839 net183
*840 net184
*841 net185
*842 net186
*843 net187
*844 net188
*845 net189
*846 net19
*847 net190
*848 net191
*849 net192
*850 net193
*851 net194
*852 net195
*853 net196
*854 net197
*855 net198
*856 net199
*857 net2
*858 net20
*859 net200
*860 net201
*861 net202
*862 net203
*863 net204
*864 net205
*865 net206
*866 net207
*867 net208
*868 net209
*869 net21
*870 net210
*871 net211
*872 net212
*873 net213
*874 net214
*875 net215
*876 net216
*877 net217
*878 net218
*879 net219
*880 net22
*881 net220
*882 net221
*883 net222
*884 net223
*885 net224
*886 net225
*887 net226
*888 net227
*889 net228
*890 net229
*891 net23
*892 net230
*893 net231
*894 net232
*895 net233
*896 net234
*897 net235
*898 net236
*899 net237
*900 net238
*901 net239
*902 net24
*903 net240
*904 net241
*905 net242
*906 net243
*907 net244
*908 net245
*909 net246
*910 net247
*911 net248
*912 net249
*913 net25
*914 net250
*915 net251
*916 net252
*917 net253
*918 net254
*919 net255
*920 net256
*921 net257
*922 net258
*923 net259
*924 net26
*925 net260
*926 net261
*927 net262
*928 net263
*929 net264
*930 net265
*931 net266
*932 net267
*933 net268
*934 net269
*935 net27
*936 net270
*937 net271
*938 net272
*939 net273
*940 net274
*941 net275
*942 net276
*943 net277
*944 net278
*945 net279
*946 net28
*947 net280
*948 net281
*949 net282
*950 net283
*951 net284
*952 net285
*953 net286
*954 net287
*955 net288
*956 net289
*957 net29
*958 net290
*959 net291
*960 net292
*961 net293
*962 net294
*963 net295
*964 net296
*965 net297
*966 net298
*967 net299
*968 net3
*969 net30
*970 net300
*971 net301
*972 net302
*973 net303
*974 net304
*975 net305
*976 net306
*977 net307
*978 net308
*979 net309
*980 net31
*981 net310
*982 net311
*983 net312
*984 net313
*985 net314
*986 net315
*987 net316
*988 net317
*989 net318
*990 net319
*991 net32
*992 net320
*993 net321
*994 net322
*995 net323
*996 net324
*997 net325
*998 net326
*999 net327
*1000 net328
*1001 net329
*1002 net33
*1003 net330
*1004 net331
*1005 net332
*1006 net333
*1007 net334
*1008 net335
*1009 net336
*1010 net337
*1011 net338
*1012 net339
*1013 net34
*1014 net340
*1015 net341
*1016 net342
*1017 net343
*1018 net344
*1019 net345
*1020 net346
*1021 net347
*1022 net348
*1023 net349
*1024 net35
*1025 net350
*1026 net351
*1027 net352
*1028 net353
*1029 net354
*1030 net355
*1031 net356
*1032 net357
*1033 net358
*1034 net359
*1035 net36
*1036 net360
*1037 net361
*1038 net362
*1039 net363
*1040 net364
*1041 net365
*1042 net366
*1043 net367
*1044 net368
*1045 net369
*1046 net37
*1047 net370
*1048 net371
*1049 net372
*1050 net373
*1051 net374
*1052 net375
*1053 net376
*1054 net377
*1055 net378
*1056 net379
*1057 net38
*1058 net380
*1059 net381
*1060 net382
*1061 net383
*1062 net384
*1063 net385
*1064 net386
*1065 net387
*1066 net388
*1067 net389
*1068 net39
*1069 net390
*1070 net391
*1071 net392
*1072 net393
*1073 net394
*1074 net395
*1075 net396
*1076 net397
*1077 net398
*1078 net399
*1079 net4
*1080 net40
*1081 net400
*1082 net401
*1083 net402
*1084 net403
*1085 net404
*1086 net405
*1087 net406
*1088 net407
*1089 net408
*1090 net409
*1091 net41
*1092 net410
*1093 net411
*1094 net412
*1095 net413
*1096 net414
*1097 net415
*1098 net416
*1099 net417
*1100 net418
*1101 net419
*1102 net42
*1103 net420
*1104 net421
*1105 net422
*1106 net423
*1107 net424
*1108 net425
*1109 net426
*1110 net427
*1111 net428
*1112 net429
*1113 net43
*1114 net430
*1115 net431
*1116 net432
*1117 net433
*1118 net434
*1119 net435
*1120 net436
*1121 net437
*1122 net438
*1123 net439
*1124 net44
*1125 net440
*1126 net441
*1127 net442
*1128 net443
*1129 net444
*1130 net445
*1131 net446
*1132 net447
*1133 net448
*1134 net449
*1135 net45
*1136 net450
*1137 net451
*1138 net452
*1139 net453
*1140 net454
*1141 net455
*1142 net456
*1143 net457
*1144 net458
*1145 net459
*1146 net46
*1147 net460
*1148 net461
*1149 net462
*1150 net463
*1151 net464
*1152 net465
*1153 net466
*1154 net467
*1155 net468
*1156 net469
*1157 net47
*1158 net470
*1159 net471
*1160 net472
*1161 net473
*1162 net474
*1163 net475
*1164 net476
*1165 net477
*1166 net478
*1167 net479
*1168 net48
*1169 net480
*1170 net481
*1171 net482
*1172 net483
*1173 net484
*1174 net485
*1175 net486
*1176 net487
*1177 net488
*1178 net489
*1179 net49
*1180 net490
*1181 net491
*1182 net492
*1183 net493
*1184 net494
*1185 net495
*1186 net496
*1187 net497
*1188 net498
*1189 net499
*1190 net5
*1191 net50
*1192 net500
*1193 net501
*1194 net502
*1195 net503
*1196 net504
*1197 net505
*1198 net506
*1199 net507
*1200 net508
*1201 net509
*1202 net51
*1203 net510
*1204 net511
*1205 net512
*1206 net513
*1207 net514
*1208 net515
*1209 net516
*1210 net517
*1211 net518
*1212 net519
*1213 net52
*1214 net520
*1215 net521
*1216 net522
*1217 net523
*1218 net524
*1219 net525
*1220 net526
*1221 net527
*1222 net528
*1223 net529
*1224 net53
*1225 net530
*1226 net531
*1227 net532
*1228 net533
*1229 net534
*1230 net535
*1231 net536
*1232 net537
*1233 net538
*1234 net539
*1235 net54
*1236 net540
*1237 net55
*1238 net56
*1239 net57
*1240 net58
*1241 net59
*1242 net6
*1243 net60
*1244 net61
*1245 net62
*1246 net63
*1247 net64
*1248 net65
*1249 net66
*1250 net67
*1251 net68
*1252 net69
*1253 net7
*1254 net70
*1255 net71
*1256 net72
*1257 net73
*1258 net74
*1259 net75
*1260 net76
*1261 net77
*1262 net78
*1263 net79
*1264 net8
*1265 net80
*1266 net81
*1267 net82
*1268 net83
*1269 net84
*1270 net85
*1271 net86
*1272 net87
*1273 net88
*1274 net89
*1275 net9
*1276 net90
*1277 net91
*1278 net92
*1279 net93
*1280 net94
*1281 net95
*1282 net96
*1283 net97
*1284 net98
*1285 net99
*1286 pwm_counter0\.count\[0\]
*1287 pwm_counter0\.count\[1\]
*1288 pwm_counter0\.count\[2\]
*1289 pwm_counter0\.count\[3\]
*1290 pwm_counter0\.count\[4\]
*1291 pwm_counter0\.count\[5\]
*1292 pwm_counter0\.count\[6\]
*1293 pwm_counter0\.count\[7\]
*1294 pwm_fall_detector\.pos\[0\]
*1295 pwm_fall_detector\.pos\[1\]
*1296 pwm_fall_detector\.pos\[2\]
*1297 pwm_fall_detector\.pos\[3\]
*1298 pwm_fall_detector\.pos\[4\]
*1299 pwm_fall_detector\.pos\[5\]
*1300 pwm_fall_detector\.pos\[6\]
*1301 pwm_fall_detector\.pos\[7\]
*1302 pwm_rise_detector\.pos\[0\]
*1303 pwm_rise_detector\.pos\[1\]
*1304 pwm_rise_detector\.pos\[2\]
*1305 pwm_rise_detector\.pos\[3\]
*1306 pwm_rise_detector\.pos\[4\]
*1307 pwm_rise_detector\.pos\[5\]
*1308 pwm_rise_detector\.pos\[6\]
*1309 pwm_rise_detector\.pos\[7\]
*1310 ANTENNA_1
*1311 ANTENNA_10
*1312 ANTENNA_11
*1313 ANTENNA_12
*1314 ANTENNA_13
*1315 ANTENNA_14
*1316 ANTENNA_15
*1317 ANTENNA_16
*1318 ANTENNA_17
*1319 ANTENNA_18
*1320 ANTENNA_19
*1321 ANTENNA_2
*1322 ANTENNA_20
*1323 ANTENNA_21
*1324 ANTENNA_22
*1325 ANTENNA_23
*1326 ANTENNA_24
*1327 ANTENNA_25
*1328 ANTENNA_26
*1329 ANTENNA_3
*1330 ANTENNA_4
*1331 ANTENNA_5
*1332 ANTENNA_6
*1333 ANTENNA_7
*1334 ANTENNA_8
*1335 ANTENNA_9
*1336 ANTENNA__103__A
*1337 ANTENNA__124__B
*1338 ANTENNA__129__A
*1339 ANTENNA__131__A
*1340 ANTENNA__133__B1
*1341 ANTENNA__137__A
*1342 ANTENNA__139__A
*1343 ANTENNA__141__B1
*1344 ANTENNA__143__A
*1345 ANTENNA__143__B
*1346 ANTENNA__143__C
*1347 ANTENNA__143__D
*1348 ANTENNA__144__A
*1349 ANTENNA__144__B
*1350 ANTENNA__144__C
*1351 ANTENNA__144__D
*1352 ANTENNA__145__A
*1353 ANTENNA__145__B
*1354 ANTENNA__145__C
*1355 ANTENNA__145__D
*1356 ANTENNA__146__C
*1357 ANTENNA__147__A
*1358 ANTENNA__147__B
*1359 ANTENNA__147__C
*1360 ANTENNA__147__D
*1361 ANTENNA__148__A
*1362 ANTENNA__148__B
*1363 ANTENNA__148__C
*1364 ANTENNA__148__D
*1365 ANTENNA__149__A
*1366 ANTENNA__149__B
*1367 ANTENNA__149__C_N
*1368 ANTENNA__149__D_N
*1369 ANTENNA__150__A
*1370 ANTENNA__150__B
*1371 ANTENNA__150__C
*1372 ANTENNA__150__D
*1373 ANTENNA__151__B
*1374 ANTENNA__151__C
*1375 ANTENNA__151__D
*1376 ANTENNA__152__A
*1377 ANTENNA__152__B
*1378 ANTENNA__153__A
*1379 ANTENNA__153__B
*1380 ANTENNA__153__C
*1381 ANTENNA__153__D
*1382 ANTENNA__154__A
*1383 ANTENNA__154__B
*1384 ANTENNA__154__C
*1385 ANTENNA__154__D_N
*1386 ANTENNA__155__A_N
*1387 ANTENNA__155__C
*1388 ANTENNA__156__A
*1389 ANTENNA__157__A
*1390 ANTENNA__157__B
*1391 ANTENNA__157__C
*1392 ANTENNA__158__C
*1393 ANTENNA__159__A
*1394 ANTENNA__160__A1
*1395 ANTENNA__161__A1
*1396 ANTENNA__162__A1
*1397 ANTENNA__163__A1
*1398 ANTENNA__164__A1
*1399 ANTENNA__165__A1
*1400 ANTENNA__166__A1
*1401 ANTENNA__167__A1
*1402 ANTENNA__168__A1
*1403 ANTENNA__169__A1
*1404 ANTENNA__170__A1
*1405 ANTENNA__171__A1
*1406 ANTENNA__172__A1
*1407 ANTENNA__173__A1
*1408 ANTENNA__174__A1
*1409 ANTENNA__175__A1
*1410 ANTENNA__176__C
*1411 ANTENNA__177__A
*1412 ANTENNA__178__A1
*1413 ANTENNA__179__A1
*1414 ANTENNA__180__A1
*1415 ANTENNA__181__A1
*1416 ANTENNA__182__A1
*1417 ANTENNA__183__A1
*1418 ANTENNA__184__A1
*1419 ANTENNA__185__A1
*1420 ANTENNA__186__A1
*1421 ANTENNA__187__A1
*1422 ANTENNA__188__A1
*1423 ANTENNA__189__A1
*1424 ANTENNA__190__A1
*1425 ANTENNA__191__A1
*1426 ANTENNA__192__A1
*1427 ANTENNA__193__A1
*1428 ANTENNA__194__CLK
*1429 ANTENNA__195__CLK
*1430 ANTENNA__196__CLK
*1431 ANTENNA__197__CLK
*1432 ANTENNA__198__CLK
*1433 ANTENNA__199__CLK
*1434 ANTENNA__200__CLK
*1435 ANTENNA__201__CLK
*1436 ANTENNA__202__CLK
*1437 ANTENNA__202__D
*1438 ANTENNA__203__CLK
*1439 ANTENNA__204__CLK
*1440 ANTENNA__205__CLK
*1441 ANTENNA__206__CLK
*1442 ANTENNA__207__CLK
*1443 ANTENNA__208__CLK
*1444 ANTENNA__209__CLK
*1445 ANTENNA__210__CLK
*1446 ANTENNA__211__CLK
*1447 ANTENNA__212__CLK
*1448 ANTENNA__213__CLK
*1449 ANTENNA__214__CLK
*1450 ANTENNA__215__CLK
*1451 ANTENNA__216__CLK
*1452 ANTENNA__217__CLK
*1453 ANTENNA__218__CLK
*1454 ANTENNA__219__A
*1455 ANTENNA__219__A_512
*1456 ANTENNA__220__A
*1457 ANTENNA__220__A_511
*1458 ANTENNA__221__A
*1459 ANTENNA__221__A_510
*1460 ANTENNA__222__A
*1461 ANTENNA__222__A_509
*1462 ANTENNA__223__A
*1463 ANTENNA__223__A_508
*1464 ANTENNA__224__A
*1465 ANTENNA__224__A_507
*1466 ANTENNA__225__A
*1467 ANTENNA__225__A_506
*1468 ANTENNA__226__A
*1469 ANTENNA__226__A_505
*1470 ANTENNA__227__A
*1471 ANTENNA__227__A_504
*1472 ANTENNA__228__A
*1473 ANTENNA__228__A_503
*1474 ANTENNA__229__A
*1475 ANTENNA__229__A_502
*1476 ANTENNA__230__A
*1477 ANTENNA__230__A_501
*1478 ANTENNA__231__A
*1479 ANTENNA__231__A_500
*1480 ANTENNA__232__A
*1481 ANTENNA__232__A_499
*1482 ANTENNA__233__A
*1483 ANTENNA__233__A_498
*1484 ANTENNA__234__A
*1485 ANTENNA__234__A_497
*1486 ANTENNA__235__A
*1487 ANTENNA__235__A_496
*1488 ANTENNA__236__A
*1489 ANTENNA__236__A_495
*1490 ANTENNA__237__A
*1491 ANTENNA__237__A_494
*1492 ANTENNA__238__A
*1493 ANTENNA__238__A_493
*1494 ANTENNA__239__A
*1495 ANTENNA__239__A_492
*1496 ANTENNA__240__A
*1497 ANTENNA__240__A_491
*1498 ANTENNA__241__A
*1499 ANTENNA__241__A_490
*1500 ANTENNA__242__A
*1501 ANTENNA__242__A_489
*1502 ANTENNA__243__A
*1503 ANTENNA__243__A_488
*1504 ANTENNA__244__A
*1505 ANTENNA__244__A_487
*1506 ANTENNA__245__A
*1507 ANTENNA__245__A_486
*1508 ANTENNA__246__A
*1509 ANTENNA__246__A_485
*1510 ANTENNA__247__A
*1511 ANTENNA__247__A_484
*1512 ANTENNA__248__A
*1513 ANTENNA__248__A_483
*1514 ANTENNA__249__A
*1515 ANTENNA__249__A_482
*1516 ANTENNA__250__A
*1517 ANTENNA__250__A_481
*1518 ANTENNA__251__A
*1519 ANTENNA__251__A_480
*1520 ANTENNA__252__A
*1521 ANTENNA__252__A_479
*1522 ANTENNA__253__A
*1523 ANTENNA__253__A_478
*1524 ANTENNA__254__A
*1525 ANTENNA__254__A_477
*1526 ANTENNA__255__A
*1527 ANTENNA__255__A_476
*1528 ANTENNA__256__A
*1529 ANTENNA__256__A_475
*1530 ANTENNA__257__A
*1531 ANTENNA__257__A_474
*1532 ANTENNA__258__A
*1533 ANTENNA__258__A_473
*1534 ANTENNA__259__A
*1535 ANTENNA__259__A_472
*1536 ANTENNA__260__A
*1537 ANTENNA__260__A_471
*1538 ANTENNA__261__A
*1539 ANTENNA__261__A_470
*1540 ANTENNA__262__A
*1541 ANTENNA__262__A_469
*1542 ANTENNA__263__A
*1543 ANTENNA__263__A_468
*1544 ANTENNA__264__A
*1545 ANTENNA__264__A_467
*1546 ANTENNA__265__A
*1547 ANTENNA__265__A_466
*1548 ANTENNA__266__A
*1549 ANTENNA__266__A_465
*1550 ANTENNA__267__A
*1551 ANTENNA__267__A_464
*1552 ANTENNA__268__A
*1553 ANTENNA__268__A_463
*1554 ANTENNA__269__A
*1555 ANTENNA__269__A_462
*1556 ANTENNA__270__A
*1557 ANTENNA__270__A_461
*1558 ANTENNA__271__A
*1559 ANTENNA__271__A_460
*1560 ANTENNA__272__A
*1561 ANTENNA__272__A_459
*1562 ANTENNA__273__A
*1563 ANTENNA__273__A_458
*1564 ANTENNA__274__A
*1565 ANTENNA__274__A_457
*1566 ANTENNA__275__A
*1567 ANTENNA__275__A_456
*1568 ANTENNA__276__A
*1569 ANTENNA__276__A_455
*1570 ANTENNA__277__A
*1571 ANTENNA__277__A_454
*1572 ANTENNA__278__A
*1573 ANTENNA__278__A_453
*1574 ANTENNA__279__A
*1575 ANTENNA__279__A_452
*1576 ANTENNA__280__A
*1577 ANTENNA__280__A_451
*1578 ANTENNA__281__A
*1579 ANTENNA__281__A_450
*1580 ANTENNA__282__A
*1581 ANTENNA__282__A_540
*1582 ANTENNA__283__A
*1583 ANTENNA__283__A_449
*1584 ANTENNA__284__A
*1585 ANTENNA__284__A_448
*1586 ANTENNA__285__A
*1587 ANTENNA__285__A_447
*1588 ANTENNA__286__A
*1589 ANTENNA__286__A_539
*1590 ANTENNA__287__A
*1591 ANTENNA__287__A_446
*1592 ANTENNA__288__A
*1593 ANTENNA__288__A_445
*1594 ANTENNA__289__A
*1595 ANTENNA__289__A_444
*1596 ANTENNA__290__A
*1597 ANTENNA__290__A_538
*1598 ANTENNA__291__A
*1599 ANTENNA__291__A_537
*1600 ANTENNA__292__A
*1601 ANTENNA__292__A_443
*1602 ANTENNA__293__A
*1603 ANTENNA__293__A_442
*1604 ANTENNA__294__A
*1605 ANTENNA__294__A_536
*1606 ANTENNA__295__A
*1607 ANTENNA__295__A_535
*1608 ANTENNA__296__A
*1609 ANTENNA__296__A_441
*1610 ANTENNA__297__A
*1611 ANTENNA__297__A_440
*1612 ANTENNA__298__A
*1613 ANTENNA__298__A_534
*1614 ANTENNA__299__A
*1615 ANTENNA__299__A_439
*1616 ANTENNA__300__A
*1617 ANTENNA__300__A_533
*1618 ANTENNA__301__A
*1619 ANTENNA__301__A_438
*1620 ANTENNA__302__A
*1621 ANTENNA__302__A_532
*1622 ANTENNA__303__A
*1623 ANTENNA__303__A_437
*1624 ANTENNA__304__A
*1625 ANTENNA__304__A_531
*1626 ANTENNA__305__A
*1627 ANTENNA__305__A_436
*1628 ANTENNA__306__A
*1629 ANTENNA__306__A_435
*1630 ANTENNA__307__A
*1631 ANTENNA__307__A_530
*1632 ANTENNA__308__A
*1633 ANTENNA__308__A_434
*1634 ANTENNA__309__A
*1635 ANTENNA__309__A_529
*1636 ANTENNA__310__A
*1637 ANTENNA__310__A_433
*1638 ANTENNA__311__A
*1639 ANTENNA__311__A_528
*1640 ANTENNA__312__A
*1641 ANTENNA__312__A_432
*1642 ANTENNA__313__A
*1643 ANTENNA__313__A_527
*1644 ANTENNA__314__A
*1645 ANTENNA__314__A_431
*1646 ANTENNA__315__A
*1647 ANTENNA__315__A_430
*1648 ANTENNA__316__A
*1649 ANTENNA__316__A_429
*1650 ANTENNA__317__A
*1651 ANTENNA__317__A_428
*1652 ANTENNA__318__A
*1653 ANTENNA__318__A_427
*1654 ANTENNA__319__A
*1655 ANTENNA__319__A_426
*1656 ANTENNA__320__A
*1657 ANTENNA__320__A_425
*1658 ANTENNA__321__A
*1659 ANTENNA__321__A_424
*1660 ANTENNA__322__A
*1661 ANTENNA__322__A_423
*1662 ANTENNA__323__A
*1663 ANTENNA__323__A_422
*1664 ANTENNA__324__A
*1665 ANTENNA__324__A_421
*1666 ANTENNA__325__A
*1667 ANTENNA__325__A_420
*1668 ANTENNA__326__A
*1669 ANTENNA__326__A_419
*1670 ANTENNA__327__A
*1671 ANTENNA__327__A_418
*1672 ANTENNA__328__A
*1673 ANTENNA__328__A_417
*1674 ANTENNA__329__A
*1675 ANTENNA__329__A_416
*1676 ANTENNA__330__A
*1677 ANTENNA__330__A_415
*1678 ANTENNA__331__A
*1679 ANTENNA__331__A_414
*1680 ANTENNA__332__A
*1681 ANTENNA__332__A_413
*1682 ANTENNA__333__A
*1683 ANTENNA__333__A_412
*1684 ANTENNA__334__A
*1685 ANTENNA__334__A_411
*1686 ANTENNA__335__A
*1687 ANTENNA__335__A_410
*1688 ANTENNA__336__A
*1689 ANTENNA__336__A_409
*1690 ANTENNA__337__A
*1691 ANTENNA__337__A_408
*1692 ANTENNA__338__A
*1693 ANTENNA__338__A_407
*1694 ANTENNA__339__A
*1695 ANTENNA__339__A_406
*1696 ANTENNA__340__A
*1697 ANTENNA__340__A_405
*1698 ANTENNA__341__A
*1699 ANTENNA__341__A_404
*1700 ANTENNA__342__A
*1701 ANTENNA__342__A_403
*1702 ANTENNA__343__A
*1703 ANTENNA__343__A_402
*1704 ANTENNA__344__A
*1705 ANTENNA__344__A_401
*1706 ANTENNA__345__A
*1707 ANTENNA__345__A_400
*1708 ANTENNA__346__A
*1709 ANTENNA__346__A_399
*1710 ANTENNA__347__A
*1711 ANTENNA__347__A_398
*1712 ANTENNA__348__A
*1713 ANTENNA__348__A_397
*1714 ANTENNA__349__A
*1715 ANTENNA__349__A_396