*SPEF "ieee 1481-1999"
*DESIGN "TOP_digital"
*DATE "11:11:11 Fri 11 11, 1111"
*VENDOR "OpenRCX"
*PROGRAM "Parallel Extraction"
*VERSION "1.0"
*DESIGN_FLOW "NAME_SCOPE LOCAL" "PIN_CAP NONE"
*DIVIDER /
*DELIMITER :
*BUS_DELIMITER []
*T_UNIT 1 NS
*C_UNIT 1 PF
*R_UNIT 1 OHM
*L_UNIT 1 HENRY

*NAME_MAP
*1 analog_io[0]
*2 analog_io[10]
*3 analog_io[11]
*4 analog_io[12]
*5 analog_io[13]
*6 analog_io[14]
*7 analog_io[15]
*8 analog_io[16]
*9 analog_io[17]
*10 analog_io[18]
*11 analog_io[19]
*12 analog_io[1]
*13 analog_io[20]
*14 analog_io[21]
*15 analog_io[22]
*16 analog_io[23]
*17 analog_io[24]
*18 analog_io[25]
*19 analog_io[26]
*20 analog_io[27]
*21 analog_io[28]
*22 analog_io[2]
*23 analog_io[3]
*24 analog_io[4]
*25 analog_io[5]
*26 analog_io[6]
*27 analog_io[7]
*28 analog_io[8]
*29 analog_io[9]
*30 analog_trigger_in
*31 analog_trigger_out
*32 io_in[0]
*33 io_in[10]
*34 io_in[11]
*35 io_in[12]
*36 io_in[13]
*37 io_in[14]
*38 io_in[15]
*39 io_in[16]
*40 io_in[17]
*41 io_in[18]
*42 io_in[19]
*43 io_in[1]
*44 io_in[20]
*45 io_in[21]
*46 io_in[22]
*47 io_in[23]
*48 io_in[24]
*49 io_in[25]
*50 io_in[26]
*51 io_in[27]
*52 io_in[28]
*53 io_in[29]
*54 io_in[2]
*55 io_in[30]
*56 io_in[31]
*57 io_in[32]
*58 io_in[33]
*59 io_in[34]
*60 io_in[35]
*61 io_in[36]
*62 io_in[37]
*63 io_in[3]
*64 io_in[4]
*65 io_in[5]
*66 io_in[6]
*67 io_in[7]
*68 io_in[8]
*69 io_in[9]
*70 la_data_in[0]
*71 la_data_in[100]
*72 la_data_in[101]
*73 la_data_in[102]
*74 la_data_in[103]
*75 la_data_in[104]
*76 la_data_in[105]
*77 la_data_in[106]
*78 la_data_in[107]
*79 la_data_in[108]
*80 la_data_in[109]
*81 la_data_in[10]
*82 la_data_in[110]
*83 la_data_in[111]
*84 la_data_in[112]
*85 la_data_in[113]
*86 la_data_in[114]
*87 la_data_in[115]
*88 la_data_in[116]
*89 la_data_in[117]
*90 la_data_in[118]
*91 la_data_in[119]
*92 la_data_in[11]
*93 la_data_in[120]
*94 la_data_in[121]
*95 la_data_in[122]
*96 la_data_in[123]
*97 la_data_in[124]
*98 la_data_in[125]
*99 la_data_in[126]
*100 la_data_in[127]
*101 la_data_in[12]
*102 la_data_in[13]
*103 la_data_in[14]
*104 la_data_in[15]
*105 la_data_in[16]
*106 la_data_in[17]
*107 la_data_in[18]
*108 la_data_in[19]
*109 la_data_in[1]
*110 la_data_in[20]
*111 la_data_in[21]
*112 la_data_in[22]
*113 la_data_in[23]
*114 la_data_in[24]
*115 la_data_in[25]
*116 la_data_in[26]
*117 la_data_in[27]
*118 la_data_in[28]
*119 la_data_in[29]
*120 la_data_in[2]
*121 la_data_in[30]
*122 la_data_in[31]
*123 la_data_in[32]
*124 la_data_in[33]
*125 la_data_in[34]
*126 la_data_in[35]
*127 la_data_in[36]
*128 la_data_in[37]
*129 la_data_in[38]
*130 la_data_in[39]
*131 la_data_in[3]
*132 la_data_in[40]
*133 la_data_in[41]
*134 la_data_in[42]
*135 la_data_in[43]
*136 la_data_in[44]
*137 la_data_in[45]
*138 la_data_in[46]
*139 la_data_in[47]
*140 la_data_in[48]
*141 la_data_in[49]
*142 la_data_in[4]
*143 la_data_in[50]
*144 la_data_in[51]
*145 la_data_in[52]
*146 la_data_in[53]
*147 la_data_in[54]
*148 la_data_in[55]
*149 la_data_in[56]
*150 la_data_in[57]
*151 la_data_in[58]
*152 la_data_in[59]
*153 la_data_in[5]
*154 la_data_in[60]
*155 la_data_in[61]
*156 la_data_in[62]
*157 la_data_in[63]
*158 la_data_in[64]
*159 la_data_in[65]
*160 la_data_in[66]
*161 la_data_in[67]
*162 la_data_in[68]
*163 la_data_in[69]
*164 la_data_in[6]
*165 la_data_in[70]
*166 la_data_in[71]
*167 la_data_in[72]
*168 la_data_in[73]
*169 la_data_in[74]
*170 la_data_in[75]
*171 la_data_in[76]
*172 la_data_in[77]
*173 la_data_in[78]
*174 la_data_in[79]
*175 la_data_in[7]
*176 la_data_in[80]
*177 la_data_in[81]
*178 la_data_in[82]
*179 la_data_in[83]
*180 la_data_in[84]
*181 la_data_in[85]
*182 la_data_in[86]
*183 la_data_in[87]
*184 la_data_in[88]
*185 la_data_in[89]
*186 la_data_in[8]
*187 la_data_in[90]
*188 la_data_in[91]
*189 la_data_in[92]
*190 la_data_in[93]
*191 la_data_in[94]
*192 la_data_in[95]
*193 la_data_in[96]
*194 la_data_in[97]
*195 la_data_in[98]
*196 la_data_in[99]
*197 la_data_in[9]
*198 la_oenb[0]
*199 la_oenb[100]
*200 la_oenb[101]
*201 la_oenb[102]
*202 la_oenb[103]
*203 la_oenb[104]
*204 la_oenb[105]
*205 la_oenb[106]
*206 la_oenb[107]
*207 la_oenb[108]
*208 la_oenb[109]
*209 la_oenb[10]
*210 la_oenb[110]
*211 la_oenb[111]
*212 la_oenb[112]
*213 la_oenb[113]
*214 la_oenb[114]
*215 la_oenb[115]
*216 la_oenb[116]
*217 la_oenb[117]
*218 la_oenb[118]
*219 la_oenb[119]
*220 la_oenb[11]
*221 la_oenb[120]
*222 la_oenb[121]
*223 la_oenb[122]
*224 la_oenb[123]
*225 la_oenb[124]
*226 la_oenb[125]
*227 la_oenb[126]
*228 la_oenb[127]
*229 la_oenb[12]
*230 la_oenb[13]
*231 la_oenb[14]
*232 la_oenb[15]
*233 la_oenb[16]
*234 la_oenb[17]
*235 la_oenb[18]
*236 la_oenb[19]
*237 la_oenb[1]
*238 la_oenb[20]
*239 la_oenb[21]
*240 la_oenb[22]
*241 la_oenb[23]
*242 la_oenb[24]
*243 la_oenb[25]
*244 la_oenb[26]
*245 la_oenb[27]
*246 la_oenb[28]
*247 la_oenb[29]
*248 la_oenb[2]
*249 la_oenb[30]
*250 la_oenb[31]
*251 la_oenb[32]
*252 la_oenb[33]
*253 la_oenb[34]
*254 la_oenb[35]
*255 la_oenb[36]
*256 la_oenb[37]
*257 la_oenb[38]
*258 la_oenb[39]
*259 la_oenb[3]
*260 la_oenb[40]
*261 la_oenb[41]
*262 la_oenb[42]
*263 la_oenb[43]
*264 la_oenb[44]
*265 la_oenb[45]
*266 la_oenb[46]
*267 la_oenb[47]
*268 la_oenb[48]
*269 la_oenb[49]
*270 la_oenb[4]
*271 la_oenb[50]
*272 la_oenb[51]
*273 la_oenb[52]
*274 la_oenb[53]
*275 la_oenb[54]
*276 la_oenb[55]
*277 la_oenb[56]
*278 la_oenb[57]
*279 la_oenb[58]
*280 la_oenb[59]
*281 la_oenb[5]
*282 la_oenb[60]
*283 la_oenb[61]
*284 la_oenb[62]
*285 la_oenb[63]
*286 la_oenb[64]
*287 la_oenb[65]
*288 la_oenb[66]
*289 la_oenb[67]
*290 la_oenb[68]
*291 la_oenb[69]
*292 la_oenb[6]
*293 la_oenb[70]
*294 la_oenb[71]
*295 la_oenb[72]
*296 la_oenb[73]
*297 la_oenb[74]
*298 la_oenb[75]
*299 la_oenb[76]
*300 la_oenb[77]
*301 la_oenb[78]
*302 la_oenb[79]
*303 la_oenb[7]
*304 la_oenb[80]
*305 la_oenb[81]
*306 la_oenb[82]
*307 la_oenb[83]
*308 la_oenb[84]
*309 la_oenb[85]
*310 la_oenb[86]
*311 la_oenb[87]
*312 la_oenb[88]
*313 la_oenb[89]
*314 la_oenb[8]
*315 la_oenb[90]
*316 la_oenb[91]
*317 la_oenb[92]
*318 la_oenb[93]
*319 la_oenb[94]
*320 la_oenb[95]
*321 la_oenb[96]
*322 la_oenb[97]
*323 la_oenb[98]
*324 la_oenb[99]
*325 la_oenb[9]
*326 pwm_fall_out
*327 pwm_rise_out
*328 user_clock2
*329 user_irq[0]
*330 user_irq[1]
*331 user_irq[2]
*333 vccd2
*334 vdda1
*335 vdda2
*336 vssa1
*337 vssa2
*339 vssd2
*340 wb_clk_i
*341 wb_rst_i
*342 wbs_ack_o
*343 wbs_adr_i[0]
*344 wbs_adr_i[10]
*345 wbs_adr_i[11]
*346 wbs_adr_i[12]
*347 wbs_adr_i[13]
*348 wbs_adr_i[14]
*349 wbs_adr_i[15]
*350 wbs_adr_i[16]
*351 wbs_adr_i[17]
*352 wbs_adr_i[18]
*353 wbs_adr_i[19]
*354 wbs_adr_i[1]
*355 wbs_adr_i[20]
*356 wbs_adr_i[21]
*357 wbs_adr_i[22]
*358 wbs_adr_i[23]
*359 wbs_adr_i[24]
*360 wbs_adr_i[25]
*361 wbs_adr_i[26]
*362 wbs_adr_i[27]
*363 wbs_adr_i[28]
*364 wbs_adr_i[29]
*365 wbs_adr_i[2]
*366 wbs_adr_i[30]
*367 wbs_adr_i[31]
*368 wbs_adr_i[3]
*369 wbs_adr_i[4]
*370 wbs_adr_i[5]
*371 wbs_adr_i[6]
*372 wbs_adr_i[7]
*373 wbs_adr_i[8]
*374 wbs_adr_i[9]
*375 wbs_cyc_i
*376 wbs_dat_i[0]
*377 wbs_dat_i[10]
*378 wbs_dat_i[11]
*379 wbs_dat_i[12]
*380 wbs_dat_i[13]
*381 wbs_dat_i[14]
*382 wbs_dat_i[15]
*383 wbs_dat_i[16]
*384 wbs_dat_i[17]
*385 wbs_dat_i[18]
*386 wbs_dat_i[19]
*387 wbs_dat_i[1]
*388 wbs_dat_i[20]
*389 wbs_dat_i[21]
*390 wbs_dat_i[22]
*391 wbs_dat_i[23]
*392 wbs_dat_i[24]
*393 wbs_dat_i[25]
*394 wbs_dat_i[26]
*395 wbs_dat_i[27]
*396 wbs_dat_i[28]
*397 wbs_dat_i[29]
*398 wbs_dat_i[2]
*399 wbs_dat_i[30]
*400 wbs_dat_i[31]
*401 wbs_dat_i[3]
*402 wbs_dat_i[4]
*403 wbs_dat_i[5]
*404 wbs_dat_i[6]
*405 wbs_dat_i[7]
*406 wbs_dat_i[8]
*407 wbs_dat_i[9]
*408 wbs_dat_o[0]
*409 wbs_dat_o[10]
*410 wbs_dat_o[11]
*411 wbs_dat_o[12]
*412 wbs_dat_o[13]
*413 wbs_dat_o[14]
*414 wbs_dat_o[15]
*415 wbs_dat_o[16]
*416 wbs_dat_o[17]
*417 wbs_dat_o[18]
*418 wbs_dat_o[19]
*419 wbs_dat_o[1]
*420 wbs_dat_o[20]
*421 wbs_dat_o[21]
*422 wbs_dat_o[22]
*423 wbs_dat_o[23]
*424 wbs_dat_o[24]
*425 wbs_dat_o[25]
*426 wbs_dat_o[26]
*427 wbs_dat_o[27]
*428 wbs_dat_o[28]
*429 wbs_dat_o[29]
*430 wbs_dat_o[2]
*431 wbs_dat_o[30]
*432 wbs_dat_o[31]
*433 wbs_dat_o[3]
*434 wbs_dat_o[4]
*435 wbs_dat_o[5]
*436 wbs_dat_o[6]
*437 wbs_dat_o[7]
*438 wbs_dat_o[8]
*439 wbs_dat_o[9]
*440 wbs_sel_i[0]
*441 wbs_sel_i[1]
*442 wbs_sel_i[2]
*443 wbs_sel_i[3]
*444 wbs_stb_i
*445 wbs_we_i
*446 _000_
*447 _001_
*448 _002_
*449 _003_
*450 _004_
*451 _005_
*452 _006_
*453 _007_
*454 _008_
*455 _009_
*456 _010_
*457 _011_
*458 _012_
*459 _013_
*460 _014_
*461 _015_
*462 _016_
*463 _017_
*464 _018_
*465 _019_
*466 _020_
*467 _021_
*468 _022_
*469 _023_
*470 _024_
*471 _025_
*472 _026_
*473 _027_
*474 _028_
*475 _029_
*476 _030_
*477 _031_
*478 _032_
*479 _033_
*480 _034_
*481 _035_
*482 _036_
*483 _037_
*484 _038_
*485 _039_
*486 _040_
*487 _041_
*488 _042_
*489 _043_
*490 _044_
*491 _045_
*492 _046_
*493 _047_
*494 _048_
*495 _049_
*496 _050_
*497 _051_
*498 _052_
*499 _053_
*500 _054_
*501 _055_
*502 _056_
*503 _057_
*504 _058_
*505 _059_
*506 _060_
*507 _061_
*508 _062_
*509 _063_
*510 _064_
*511 _065_
*512 _066_
*513 _067_
*514 _068_
*515 _069_
*516 _070_
*517 _071_
*518 _072_
*519 _073_
*520 _074_
*521 _075_
*522 _076_
*523 _077_
*524 _078_
*525 _079_
*526 _080_
*527 _081_
*528 _082_
*529 _083_
*530 _084_
*531 _085_
*532 _086_
*533 _087_
*534 _088_
*535 _089_
*536 _090_
*537 _091_
*538 _092_
*539 _093_
*540 _094_
*541 _095_
*542 net1
*543 net10
*544 net100
*545 net101
*546 net102
*547 net103
*548 net104
*549 net105
*550 net106
*551 net107
*552 net108
*553 net109
*554 net11
*555 net110
*556 net111
*557 net112
*558 net113
*559 net114
*560 net115
*561 net116
*562 net117
*563 net118
*564 net119
*565 net12
*566 net120
*567 net121
*568 net122
*569 net123
*570 net124
*571 net125
*572 net126
*573 net127
*574 net128
*575 net129
*576 net13
*577 net130
*578 net131
*579 net14
*580 net15
*581 net16
*582 net17
*583 net18
*584 net19
*585 net2
*586 net20
*587 net21
*588 net22
*589 net23
*590 net24
*591 net25
*592 net26
*593 net27
*594 net28
*595 net29
*596 net3
*597 net30
*598 net31
*599 net32
*600 net33
*601 net34
*602 net35
*603 net36
*604 net37
*605 net38
*606 net39
*607 net4
*608 net40
*609 net41
*610 net42
*611 net43
*612 net44
*613 net45
*614 net46
*615 net47
*616 net48
*617 net49
*618 net5
*619 net50
*620 net51
*621 net52
*622 net53
*623 net54
*624 net55
*625 net56
*626 net57
*627 net58
*628 net59
*629 net6
*630 net60
*631 net61
*632 net62
*633 net63
*634 net64
*635 net65
*636 net66
*637 net67
*638 net68
*639 net69
*640 net7
*641 net70
*642 net71
*643 net72
*644 net73
*645 net74
*646 net75
*647 net76
*648 net77
*649 net78
*650 net79
*651 net8
*652 net80
*653 net81
*654 net82
*655 net83
*656 net84
*657 net85
*658 net86
*659 net87
*660 net88
*661 net89
*662 net9
*663 net90
*664 net91
*665 net92
*666 net93
*667 net94
*668 net95
*669 net96
*670 net97
*671 net98
*672 net99
*673 pwm_counter0\.count\[0\]
*674 pwm_counter0\.count\[1\]
*675 pwm_counter0\.count\[2\]
*676 pwm_counter0\.count\[3\]
*677 pwm_counter0\.count\[4\]
*678 pwm_counter0\.count\[5\]
*679 pwm_counter0\.count\[6\]
*680 pwm_counter0\.count\[7\]
*681 pwm_fall_detector\.pos\[0\]
*682 pwm_fall_detector\.pos\[1\]
*683 pwm_fall_detector\.pos\[2\]
*684 pwm_fall_detector\.pos\[3\]
*685 pwm_fall_detector\.pos\[4\]
*686 pwm_fall_detector\.pos\[5\]
*687 pwm_fall_detector\.pos\[6\]
*688 pwm_fall_detector\.pos\[7\]
*689 pwm_rise_detector\.pos\[0\]
*690 pwm_rise_detector\.pos\[1\]
*691 pwm_rise_detector\.pos\[2\]
*692 pwm_rise_detector\.pos\[3\]
*693 pwm_rise_detector\.pos\[4\]
*694 pwm_rise_detector\.pos\[5\]
*695 pwm_rise_detector\.pos\[6\]
*696 pwm_rise_detector\.pos\[7\]
*697 ANTENNA_1
*698 ANTENNA_10
*699 ANTENNA_11
*700 ANTENNA_12
*701 ANTENNA_13
*702 ANTENNA_14
*703 ANTENNA_15
*704 ANTENNA_16
*705 ANTENNA_2
*706 ANTENNA_3
*707 ANTENNA_4
*708 ANTENNA_5
*709 ANTENNA_6
*710 ANTENNA_7
*711 ANTENNA_8
*712 ANTENNA_9
*713 ANTENNA__103__A
*714 ANTENNA__124__B
*715 ANTENNA__129__A
*716 ANTENNA__131__A
*717 ANTENNA__133__B1
*718 ANTENNA__137__A
*719 ANTENNA__139__A
*720 ANTENNA__141__B1
*721 ANTENNA__143__A
*722 ANTENNA__143__B
*723 ANTENNA__143__C
*724 ANTENNA__143__D
*725 ANTENNA__144__A
*726 ANTENNA__144__B
*727 ANTENNA__144__C
*728 ANTENNA__144__D
*729 ANTENNA__145__A
*730 ANTENNA__145__B
*731 ANTENNA__145__C
*732 ANTENNA__145__D
*733 ANTENNA__146__A
*734 ANTENNA__146__C
*735 ANTENNA__147__A
*736 ANTENNA__147__B
*737 ANTENNA__147__C
*738 ANTENNA__147__D
*739 ANTENNA__148__A
*740 ANTENNA__148__B
*741 ANTENNA__148__C
*742 ANTENNA__148__D
*743 ANTENNA__149__A
*744 ANTENNA__149__B
*745 ANTENNA__149__C_N
*746 ANTENNA__149__D_N
*747 ANTENNA__150__A
*748 ANTENNA__150__B
*749 ANTENNA__150__C
*750 ANTENNA__150__D
*751 ANTENNA__151__C
*752 ANTENNA__151__D
*753 ANTENNA__152__A
*754 ANTENNA__152__B
*755 ANTENNA__153__A
*756 ANTENNA__153__B
*757 ANTENNA__153__C
*758 ANTENNA__153__D
*759 ANTENNA__154__A
*760 ANTENNA__154__B
*761 ANTENNA__154__C
*762 ANTENNA__154__D_N
*763 ANTENNA__155__A_N
*764 ANTENNA__156__A
*765 ANTENNA__157__A
*766 ANTENNA__157__B
*767 ANTENNA__157__C
*768 ANTENNA__158__A
*769 ANTENNA__158__C
*770 ANTENNA__159__B
*771 ANTENNA__160__A2
*772 ANTENNA__161__A1
*773 ANTENNA__162__A2
*774 ANTENNA__163__A1
*775 ANTENNA__164__A2
*776 ANTENNA__165__A1
*777 ANTENNA__166__A2
*778 ANTENNA__167__A1
*779 ANTENNA__168__A2
*780 ANTENNA__169__A1
*781 ANTENNA__170__A2
*782 ANTENNA__171__A1
*783 ANTENNA__172__A2
*784 ANTENNA__173__A1
*785 ANTENNA__174__A2
*786 ANTENNA__175__A1
*787 ANTENNA__176__A
*788 ANTENNA__176__C
*789 ANTENNA__177__B
*790 ANTENNA__178__A2
*791 ANTENNA__179__A1
*792 ANTENNA__180__A2
*793 ANTENNA__181__A1
*794 ANTENNA__182__A2
*795 ANTENNA__183__A1
*796 ANTENNA__184__A2
*797 ANTENNA__185__A1
*798 ANTENNA__186__A2
*799 ANTENNA__187__A1
*800 ANTENNA__188__A2
*801 ANTENNA__189__A1
*802 ANTENNA__190__A2
*803 ANTENNA__191__A1
*804 ANTENNA__192__A2
*805 ANTENNA__193__A1
*806 ANTENNA__194__CLK
*807 ANTENNA__195__CLK
*808 ANTENNA__196__CLK
*809 ANTENNA__197__CLK
*810 ANTENNA__198__CLK
*811 ANTENNA__199__CLK
*812 ANTENNA__200__CLK
*813 ANTENNA__201__CLK
*814 ANTENNA__202__CLK
*815 ANTENNA__203__CLK
*816 ANTENNA__204__CLK
*817 ANTENNA__205__CLK
*818 ANTENNA__206__CLK
*819 ANTENNA__207__CLK
*820 ANTENNA__208__CLK
*821 ANTENNA__209__CLK
*822 ANTENNA__210__CLK
*823 ANTENNA__211__CLK
*824 ANTENNA__212__CLK
*825 ANTENNA__213__CLK
*826 ANTENNA__214__CLK
*827 ANTENNA__215__CLK
*828 ANTENNA__216__CLK
*829 ANTENNA__217__CLK
*830 ANTENNA__218__CLK
*831 ANTENNA__219__A
*832 ANTENNA__219__A_103
*833 ANTENNA__220__A
*834 ANTENNA__220__A_102
*835 ANTENNA__221__A
*836 ANTENNA__221__A_101
*837 ANTENNA__222__A
*838 ANTENNA__222__A_131
*839 ANTENNA__223__A
*840 ANTENNA__223__A_100
*841 ANTENNA__224__A
*842 ANTENNA__224__A_99
*843 ANTENNA__225__A
*844 ANTENNA__225__A_98
*845 ANTENNA__226__A
*846 ANTENNA__226__A_130
*847 ANTENNA__227__A
*848 ANTENNA__227__A_97
*849 ANTENNA__228__A
*850 ANTENNA__228__A_96
*851 ANTENNA__229__A
*852 ANTENNA__229__A_95
*853 ANTENNA__230__A
*854 ANTENNA__230__A_129
*855 ANTENNA__231__A
*856 ANTENNA__231__A_128
*857 ANTENNA__232__A
*858 ANTENNA__232__A_94
*859 ANTENNA__233__A
*860 ANTENNA__233__A_93
*861 ANTENNA__234__A
*862 ANTENNA__234__A_127
*863 ANTENNA__235__A
*864 ANTENNA__235__A_126
*865 ANTENNA__236__A
*866 ANTENNA__236__A_92
*867 ANTENNA__237__A
*868 ANTENNA__237__A_91
*869 ANTENNA__238__A
*870 ANTENNA__238__A_125
*871 ANTENNA__239__A
*872 ANTENNA__239__A_90
*873 ANTENNA__240__A
*874 ANTENNA__240__A_124
*875 ANTENNA__241__A
*876 ANTENNA__241__A_89
*877 ANTENNA__242__A
*878 ANTENNA__242__A_123
*879 ANTENNA__243__A
*880 ANTENNA__243__A_88
*881 ANTENNA__244__A
*882 ANTENNA__244__A_122
*883 ANTENNA__245__A
*884 ANTENNA__245__A_87
*885 ANTENNA__246__A
*886 ANTENNA__246__A_86
*887 ANTENNA__247__A
*888 ANTENNA__247__A_121
*889 ANTENNA__248__A
*890 ANTENNA__248__A_85
*891 ANTENNA__249__A
*892 ANTENNA__249__A_120
*893 ANTENNA__250__A
*894 ANTENNA__250__A_84
*895 ANTENNA__251__A
*896 ANTENNA__251__A_119
*897 ANTENNA__252__A
*898 ANTENNA__252__A_83
*899 ANTENNA__253__A
*900 ANTENNA__253__A_118
*901 FILLER_0_0_1005
*902 FILLER_0_0_1009
*903 FILLER_0_0_1021
*904 FILLER_0_0_1033
*905 FILLER_0_0_1037
*906 FILLER_0_0_1045
*907 FILLER_0_0_1052
*908 FILLER_0_0_1065
*909 FILLER_0_0_1077
*910 FILLER_0_0_1085
*911 FILLER_0_0_109
*912 FILLER_0_0_1091
*913 FILLER_0_0_1093
*914 FILLER_0_0_11
*915 FILLER_0_0_1105
*916 FILLER_0_0_1117
*917 FILLER_0_0_1121
*918 FILLER_0_0_113
*919 FILLER_0_0_1133
*920 FILLER_0_0_1145
*921 FILLER_0_0_1149
*922 FILLER_0_0_1161
*923 FILLER_0_0_1173
*924 FILLER_0_0_1177
*925 FILLER_0_0_1189
*926 FILLER_0_0_1201
*927 FILLER_0_0_1205
*928 FILLER_0_0_1217
*929 FILLER_0_0_1225
*930 FILLER_0_0_1231
*931 FILLER_0_0_1233
*932 FILLER_0_0_1245
*933 FILLER_0_0_125
*934 FILLER_0_0_1257
*935 FILLER_0_0_1261
*936 FILLER_0_0_1273
*937 FILLER_0_0_1285
*938 FILLER_0_0_1289
*939 FILLER_0_0_1301
*940 FILLER_0_0_1313
*941 FILLER_0_0_1317
*942 FILLER_0_0_1329
*943 FILLER_0_0_1341
*944 FILLER_0_0_1345
*945 FILLER_0_0_1357
*946 FILLER_0_0_1369
*947 FILLER_0_0_137
*948 FILLER_0_0_1373
*949 FILLER_0_0_1385
*950 FILLER_0_0_1397
*951 FILLER_0_0_1401
*952 FILLER_0_0_141
*953 FILLER_0_0_1413
*954 FILLER_0_0_1425
*955 FILLER_0_0_1429
*956 FILLER_0_0_1441
*957 FILLER_0_0_1451
*958 FILLER_0_0_1455
*959 FILLER_0_0_1457
*960 FILLER_0_0_1469
*961 FILLER_0_0_1481
*962 FILLER_0_0_1485
*963 FILLER_0_0_1497
*964 FILLER_0_0_15
*965 FILLER_0_0_1509
*966 FILLER_0_0_1513
*967 FILLER_0_0_1525
*968 FILLER_0_0_153
*969 FILLER_0_0_1537
*970 FILLER_0_0_1541
*971 FILLER_0_0_1553
*972 FILLER_0_0_1565
*973 FILLER_0_0_1569
*974 FILLER_0_0_1576
*975 FILLER_0_0_1588
*976 FILLER_0_0_1597
*977 FILLER_0_0_1609
*978 FILLER_0_0_1621
*979 FILLER_0_0_1625
*980 FILLER_0_0_1637
*981 FILLER_0_0_1649
*982 FILLER_0_0_1653
*983 FILLER_0_0_166
*984 FILLER_0_0_1665
*985 FILLER_0_0_1677
*986 FILLER_0_0_1681
*987 FILLER_0_0_169
*988 FILLER_0_0_1693
*989 FILLER_0_0_1705
*990 FILLER_0_0_1709
*991 FILLER_0_0_1721
*992 FILLER_0_0_1733
*993 FILLER_0_0_1737
*994 FILLER_0_0_1749
*995 FILLER_0_0_1761
*996 FILLER_0_0_1765
*997 FILLER_0_0_1777
*998 FILLER_0_0_1789
*999 FILLER_0_0_1793
*1000 FILLER_0_0_1801
*1001 FILLER_0_0_1806
*1002 FILLER_0_0_181
*1003 FILLER_0_0_1818
*1004 FILLER_0_0_1821
*1005 FILLER_0_0_1833
*1006 FILLER_0_0_1845
*1007 FILLER_0_0_1849
*1008 FILLER_0_0_1861
*1009 FILLER_0_0_1869
*1010 FILLER_0_0_1874
*1011 FILLER_0_0_1877
*1012 FILLER_0_0_1884
*1013 FILLER_0_0_1888
*1014 FILLER_0_0_1900
*1015 FILLER_0_0_1905
*1016 FILLER_0_0_1919
*1017 FILLER_0_0_1927
*1018 FILLER_0_0_193
*1019 FILLER_0_0_197
*1020 FILLER_0_0_204
*1021 FILLER_0_0_216
*1022 FILLER_0_0_225
*1023 FILLER_0_0_237
*1024 FILLER_0_0_249
*1025 FILLER_0_0_253
*1026 FILLER_0_0_265
*1027 FILLER_0_0_27
*1028 FILLER_0_0_277
*1029 FILLER_0_0_281
*1030 FILLER_0_0_288
*1031 FILLER_0_0_29
*1032 FILLER_0_0_296
*1033 FILLER_0_0_3
*1034 FILLER_0_0_303
*1035 FILLER_0_0_307
*1036 FILLER_0_0_309
*1037 FILLER_0_0_321
*1038 FILLER_0_0_333
*1039 FILLER_0_0_337
*1040 FILLER_0_0_349
*1041 FILLER_0_0_361
*1042 FILLER_0_0_365
*1043 FILLER_0_0_377
*1044 FILLER_0_0_389
*1045 FILLER_0_0_393
*1046 FILLER_0_0_405
*1047 FILLER_0_0_41
*1048 FILLER_0_0_417
*1049 FILLER_0_0_421
*1050 FILLER_0_0_433
*1051 FILLER_0_0_445
*1052 FILLER_0_0_449
*1053 FILLER_0_0_461
*1054 FILLER_0_0_473
*1055 FILLER_0_0_477
*1056 FILLER_0_0_489
*1057 FILLER_0_0_501
*1058 FILLER_0_0_505
*1059 FILLER_0_0_517
*1060 FILLER_0_0_529
*1061 FILLER_0_0_53
*1062 FILLER_0_0_533
*1063 FILLER_0_0_545
*1064 FILLER_0_0_557
*1065 FILLER_0_0_561
*1066 FILLER_0_0_57
*1067 FILLER_0_0_573
*1068 FILLER_0_0_585
*1069 FILLER_0_0_589
*1070 FILLER_0_0_601
*1071 FILLER_0_0_609
*1072 FILLER_0_0_615
*1073 FILLER_0_0_617
*1074 FILLER_0_0_629
*1075 FILLER_0_0_641
*1076 FILLER_0_0_645
*1077 FILLER_0_0_657
*1078 FILLER_0_0_669
*1079 FILLER_0_0_673
*1080 FILLER_0_0_685
*1081 FILLER_0_0_69
*1082 FILLER_0_0_697
*1083 FILLER_0_0_701
*1084 FILLER_0_0_713
*1085 FILLER_0_0_725
*1086 FILLER_0_0_729
*1087 FILLER_0_0_737
*1088 FILLER_0_0_744
*1089 FILLER_0_0_757
*1090 FILLER_0_0_769
*1091 FILLER_0_0_781
*1092 FILLER_0_0_785
*1093 FILLER_0_0_797
*1094 FILLER_0_0_809
*1095 FILLER_0_0_81
*1096 FILLER_0_0_813
*1097 FILLER_0_0_825
*1098 FILLER_0_0_837
*1099 FILLER_0_0_841
*1100 FILLER_0_0_85
*1101 FILLER_0_0_853
*1102 FILLER_0_0_865
*1103 FILLER_0_0_869
*1104 FILLER_0_0_881
*1105 FILLER_0_0_893
*1106 FILLER_0_0_897
*1107 FILLER_0_0_909
*1108 FILLER_0_0_921
*1109 FILLER_0_0_925
*1110 FILLER_0_0_937
*1111 FILLER_0_0_949
*1112 FILLER_0_0_953
*1113 FILLER_0_0_960
*1114 FILLER_0_0_97
*1115 FILLER_0_0_972
*1116 FILLER_0_0_981
*1117 FILLER_0_0_993
*1118 FILLER_0_100_1005
*1119 FILLER_0_100_1017
*1120 FILLER_0_100_1029
*1121 FILLER_0_100_1035
*1122 FILLER_0_100_1037
*1123 FILLER_0_100_1049
*1124 FILLER_0_100_1061
*1125 FILLER_0_100_1073
*1126 FILLER_0_100_1085
*1127 FILLER_0_100_109
*1128 FILLER_0_100_1091
*1129 FILLER_0_100_1093
*1130 FILLER_0_100_1105
*1131 FILLER_0_100_1117
*1132 FILLER_0_100_1129
*1133 FILLER_0_100_1141
*1134 FILLER_0_100_1147
*1135 FILLER_0_100_1149
*1136 FILLER_0_100_1161
*1137 FILLER_0_100_1175
*1138 FILLER_0_100_1185
*1139 FILLER_0_100_1203
*1140 FILLER_0_100_1205
*1141 FILLER_0_100_1209
*1142 FILLER_0_100_121
*1143 FILLER_0_100_1213
*1144 FILLER_0_100_1225
*1145 FILLER_0_100_1233
*1146 FILLER_0_100_1243
*1147 FILLER_0_100_1253
*1148 FILLER_0_100_1258
*1149 FILLER_0_100_1261
*1150 FILLER_0_100_1281
*1151 FILLER_0_100_1285
*1152 FILLER_0_100_1289
*1153 FILLER_0_100_1293
*1154 FILLER_0_100_1305
*1155 FILLER_0_100_1313
*1156 FILLER_0_100_1317
*1157 FILLER_0_100_1329
*1158 FILLER_0_100_133
*1159 FILLER_0_100_1341
*1160 FILLER_0_100_1353
*1161 FILLER_0_100_1365
*1162 FILLER_0_100_1371
*1163 FILLER_0_100_1373
*1164 FILLER_0_100_1385
*1165 FILLER_0_100_139
*1166 FILLER_0_100_1397
*1167 FILLER_0_100_1409
*1168 FILLER_0_100_141
*1169 FILLER_0_100_1421
*1170 FILLER_0_100_1427
*1171 FILLER_0_100_1429
*1172 FILLER_0_100_1441
*1173 FILLER_0_100_1453
*1174 FILLER_0_100_1465
*1175 FILLER_0_100_1477
*1176 FILLER_0_100_1483
*1177 FILLER_0_100_1485
*1178 FILLER_0_100_1497
*1179 FILLER_0_100_1509
*1180 FILLER_0_100_1521
*1181 FILLER_0_100_153
*1182 FILLER_0_100_1533
*1183 FILLER_0_100_1539
*1184 FILLER_0_100_1541
*1185 FILLER_0_100_1553
*1186 FILLER_0_100_1565
*1187 FILLER_0_100_1577
*1188 FILLER_0_100_1589
*1189 FILLER_0_100_1595
*1190 FILLER_0_100_1597
*1191 FILLER_0_100_1609
*1192 FILLER_0_100_1621
*1193 FILLER_0_100_1633
*1194 FILLER_0_100_1645
*1195 FILLER_0_100_165
*1196 FILLER_0_100_1651
*1197 FILLER_0_100_1653
*1198 FILLER_0_100_1665
*1199 FILLER_0_100_1677
*1200 FILLER_0_100_1689
*1201 FILLER_0_100_1701
*1202 FILLER_0_100_1707
*1203 FILLER_0_100_1709
*1204 FILLER_0_100_1721
*1205 FILLER_0_100_1733
*1206 FILLER_0_100_1745
*1207 FILLER_0_100_1757
*1208 FILLER_0_100_1763
*1209 FILLER_0_100_1765
*1210 FILLER_0_100_177
*1211 FILLER_0_100_1777
*1212 FILLER_0_100_1789
*1213 FILLER_0_100_1801
*1214 FILLER_0_100_1813
*1215 FILLER_0_100_1819
*1216 FILLER_0_100_1821
*1217 FILLER_0_100_1833
*1218 FILLER_0_100_1845
*1219 FILLER_0_100_1857
*1220 FILLER_0_100_1869
*1221 FILLER_0_100_1875
*1222 FILLER_0_100_1877
*1223 FILLER_0_100_1889
*1224 FILLER_0_100_189
*1225 FILLER_0_100_1901
*1226 FILLER_0_100_1913
*1227 FILLER_0_100_1925
*1228 FILLER_0_100_195
*1229 FILLER_0_100_197
*1230 FILLER_0_100_20
*1231 FILLER_0_100_209
*1232 FILLER_0_100_221
*1233 FILLER_0_100_233
*1234 FILLER_0_100_245
*1235 FILLER_0_100_251
*1236 FILLER_0_100_253
*1237 FILLER_0_100_265
*1238 FILLER_0_100_277
*1239 FILLER_0_100_289
*1240 FILLER_0_100_29
*1241 FILLER_0_100_3
*1242 FILLER_0_100_301
*1243 FILLER_0_100_307
*1244 FILLER_0_100_309
*1245 FILLER_0_100_321
*1246 FILLER_0_100_333
*1247 FILLER_0_100_345
*1248 FILLER_0_100_357
*1249 FILLER_0_100_363
*1250 FILLER_0_100_365
*1251 FILLER_0_100_377
*1252 FILLER_0_100_389
*1253 FILLER_0_100_401
*1254 FILLER_0_100_41
*1255 FILLER_0_100_413
*1256 FILLER_0_100_419
*1257 FILLER_0_100_421
*1258 FILLER_0_100_433
*1259 FILLER_0_100_445
*1260 FILLER_0_100_457
*1261 FILLER_0_100_469
*1262 FILLER_0_100_475
*1263 FILLER_0_100_477
*1264 FILLER_0_100_489
*1265 FILLER_0_100_501
*1266 FILLER_0_100_513
*1267 FILLER_0_100_525
*1268 FILLER_0_100_53
*1269 FILLER_0_100_531
*1270 FILLER_0_100_533
*1271 FILLER_0_100_545
*1272 FILLER_0_100_557
*1273 FILLER_0_100_569
*1274 FILLER_0_100_581
*1275 FILLER_0_100_587
*1276 FILLER_0_100_589
*1277 FILLER_0_100_601
*1278 FILLER_0_100_613
*1279 FILLER_0_100_625
*1280 FILLER_0_100_637
*1281 FILLER_0_100_643
*1282 FILLER_0_100_645
*1283 FILLER_0_100_65
*1284 FILLER_0_100_657
*1285 FILLER_0_100_669
*1286 FILLER_0_100_681
*1287 FILLER_0_100_693
*1288 FILLER_0_100_699
*1289 FILLER_0_100_701
*1290 FILLER_0_100_713
*1291 FILLER_0_100_725
*1292 FILLER_0_100_737
*1293 FILLER_0_100_749
*1294 FILLER_0_100_755
*1295 FILLER_0_100_757
*1296 FILLER_0_100_769
*1297 FILLER_0_100_77
*1298 FILLER_0_100_781
*1299 FILLER_0_100_793
*1300 FILLER_0_100_8
*1301 FILLER_0_100_805
*1302 FILLER_0_100_811
*1303 FILLER_0_100_813
*1304 FILLER_0_100_825
*1305 FILLER_0_100_83
*1306 FILLER_0_100_837
*1307 FILLER_0_100_849
*1308 FILLER_0_100_85
*1309 FILLER_0_100_861
*1310 FILLER_0_100_867
*1311 FILLER_0_100_869
*1312 FILLER_0_100_881
*1313 FILLER_0_100_893
*1314 FILLER_0_100_905
*1315 FILLER_0_100_917
*1316 FILLER_0_100_923
*1317 FILLER_0_100_925
*1318 FILLER_0_100_937
*1319 FILLER_0_100_949
*1320 FILLER_0_100_961
*1321 FILLER_0_100_97
*1322 FILLER_0_100_973
*1323 FILLER_0_100_979
*1324 FILLER_0_100_981
*1325 FILLER_0_100_993
*1326 FILLER_0_101_1001
*1327 FILLER_0_101_1007
*1328 FILLER_0_101_1009
*1329 FILLER_0_101_1021
*1330 FILLER_0_101_1033
*1331 FILLER_0_101_1045
*1332 FILLER_0_101_105
*1333 FILLER_0_101_1057
*1334 FILLER_0_101_1063
*1335 FILLER_0_101_1065
*1336 FILLER_0_101_1077
*1337 FILLER_0_101_1089
*1338 FILLER_0_101_1101
*1339 FILLER_0_101_111
*1340 FILLER_0_101_1113
*1341 FILLER_0_101_1119
*1342 FILLER_0_101_1121
*1343 FILLER_0_101_113
*1344 FILLER_0_101_1133
*1345 FILLER_0_101_1145
*1346 FILLER_0_101_1157
*1347 FILLER_0_101_1171
*1348 FILLER_0_101_1175
*1349 FILLER_0_101_1177
*1350 FILLER_0_101_1181
*1351 FILLER_0_101_1199
*1352 FILLER_0_101_1208
*1353 FILLER_0_101_1219
*1354 FILLER_0_101_1228
*1355 FILLER_0_101_1233
*1356 FILLER_0_101_1243
*1357 FILLER_0_101_125
*1358 FILLER_0_101_1256
*1359 FILLER_0_101_1265
*1360 FILLER_0_101_1274
*1361 FILLER_0_101_1280
*1362 FILLER_0_101_1284
*1363 FILLER_0_101_1287
*1364 FILLER_0_101_1289
*1365 FILLER_0_101_1301
*1366 FILLER_0_101_1313
*1367 FILLER_0_101_1325
*1368 FILLER_0_101_1337
*1369 FILLER_0_101_1343
*1370 FILLER_0_101_1345
*1371 FILLER_0_101_1357
*1372 FILLER_0_101_1369
*1373 FILLER_0_101_137
*1374 FILLER_0_101_1381
*1375 FILLER_0_101_1393
*1376 FILLER_0_101_1399
*1377 FILLER_0_101_1401
*1378 FILLER_0_101_1413
*1379 FILLER_0_101_1425
*1380 FILLER_0_101_1437
*1381 FILLER_0_101_1449
*1382 FILLER_0_101_1455
*1383 FILLER_0_101_1457
*1384 FILLER_0_101_1469
*1385 FILLER_0_101_1481
*1386 FILLER_0_101_149
*1387 FILLER_0_101_1493
*1388 FILLER_0_101_15
*1389 FILLER_0_101_1505
*1390 FILLER_0_101_1511
*1391 FILLER_0_101_1513
*1392 FILLER_0_101_1525
*1393 FILLER_0_101_1537
*1394 FILLER_0_101_1549
*1395 FILLER_0_101_1561
*1396 FILLER_0_101_1567
*1397 FILLER_0_101_1569
*1398 FILLER_0_101_1581
*1399 FILLER_0_101_1593
*1400 FILLER_0_101_1605
*1401 FILLER_0_101_161
*1402 FILLER_0_101_1617
*1403 FILLER_0_101_1623
*1404 FILLER_0_101_1625
*1405 FILLER_0_101_1637
*1406 FILLER_0_101_1649
*1407 FILLER_0_101_1661
*1408 FILLER_0_101_167
*1409 FILLER_0_101_1673
*1410 FILLER_0_101_1679
*1411 FILLER_0_101_1681
*1412 FILLER_0_101_169
*1413 FILLER_0_101_1693
*1414 FILLER_0_101_1705
*1415 FILLER_0_101_1717
*1416 FILLER_0_101_1729
*1417 FILLER_0_101_1735
*1418 FILLER_0_101_1737
*1419 FILLER_0_101_1749
*1420 FILLER_0_101_1761
*1421 FILLER_0_101_1773
*1422 FILLER_0_101_1785
*1423 FILLER_0_101_1791
*1424 FILLER_0_101_1793
*1425 FILLER_0_101_1805
*1426 FILLER_0_101_181
*1427 FILLER_0_101_1817
*1428 FILLER_0_101_1829
*1429 FILLER_0_101_1841
*1430 FILLER_0_101_1847
*1431 FILLER_0_101_1849
*1432 FILLER_0_101_1861
*1433 FILLER_0_101_1873
*1434 FILLER_0_101_1885
*1435 FILLER_0_101_1897
*1436 FILLER_0_101_1903
*1437 FILLER_0_101_1905
*1438 FILLER_0_101_1917
*1439 FILLER_0_101_193
*1440 FILLER_0_101_205
*1441 FILLER_0_101_217
*1442 FILLER_0_101_223
*1443 FILLER_0_101_225
*1444 FILLER_0_101_237
*1445 FILLER_0_101_249
*1446 FILLER_0_101_261
*1447 FILLER_0_101_27
*1448 FILLER_0_101_273
*1449 FILLER_0_101_279
*1450 FILLER_0_101_281
*1451 FILLER_0_101_293
*1452 FILLER_0_101_3
*1453 FILLER_0_101_305
*1454 FILLER_0_101_317
*1455 FILLER_0_101_329
*1456 FILLER_0_101_335
*1457 FILLER_0_101_337
*1458 FILLER_0_101_349
*1459 FILLER_0_101_361
*1460 FILLER_0_101_373
*1461 FILLER_0_101_385
*1462 FILLER_0_101_39
*1463 FILLER_0_101_391
*1464 FILLER_0_101_393
*1465 FILLER_0_101_405
*1466 FILLER_0_101_417
*1467 FILLER_0_101_429
*1468 FILLER_0_101_441
*1469 FILLER_0_101_447
*1470 FILLER_0_101_449
*1471 FILLER_0_101_461
*1472 FILLER_0_101_473
*1473 FILLER_0_101_485
*1474 FILLER_0_101_497
*1475 FILLER_0_101_503
*1476 FILLER_0_101_505
*1477 FILLER_0_101_51
*1478 FILLER_0_101_517
*1479 FILLER_0_101_529
*1480 FILLER_0_101_541
*1481 FILLER_0_101_55
*1482 FILLER_0_101_553
*1483 FILLER_0_101_559
*1484 FILLER_0_101_561
*1485 FILLER_0_101_57
*1486 FILLER_0_101_573
*1487 FILLER_0_101_585
*1488 FILLER_0_101_597
*1489 FILLER_0_101_609
*1490 FILLER_0_101_615
*1491 FILLER_0_101_617
*1492 FILLER_0_101_629
*1493 FILLER_0_101_641
*1494 FILLER_0_101_653
*1495 FILLER_0_101_665
*1496 FILLER_0_101_671
*1497 FILLER_0_101_673
*1498 FILLER_0_101_685
*1499 FILLER_0_101_69
*1500 FILLER_0_101_697
*1501 FILLER_0_101_709
*1502 FILLER_0_101_721
*1503 FILLER_0_101_727
*1504 FILLER_0_101_729
*1505 FILLER_0_101_741
*1506 FILLER_0_101_753
*1507 FILLER_0_101_765
*1508 FILLER_0_101_777
*1509 FILLER_0_101_783
*1510 FILLER_0_101_785
*1511 FILLER_0_101_797
*1512 FILLER_0_101_809
*1513 FILLER_0_101_81
*1514 FILLER_0_101_821
*1515 FILLER_0_101_833
*1516 FILLER_0_101_839
*1517 FILLER_0_101_841
*1518 FILLER_0_101_853
*1519 FILLER_0_101_865
*1520 FILLER_0_101_877
*1521 FILLER_0_101_889
*1522 FILLER_0_101_895
*1523 FILLER_0_101_897