*SPEF "ieee 1481-1999"
*DESIGN "TOP_digital"
*DATE "11:11:11 Fri 11 11, 1111"
*VENDOR "OpenRCX"
*PROGRAM "Parallel Extraction"
*VERSION "1.0"
*DESIGN_FLOW "NAME_SCOPE LOCAL" "PIN_CAP NONE"
*DIVIDER /
*DELIMITER :
*BUS_DELIMITER []
*T_UNIT 1 NS
*C_UNIT 1 PF
*R_UNIT 1 OHM
*L_UNIT 1 HENRY

*NAME_MAP
*1 analog_io[0]
*2 analog_io[10]
*3 analog_io[11]
*4 analog_io[12]
*5 analog_io[13]
*6 analog_io[14]
*7 analog_io[15]
*8 analog_io[16]
*9 analog_io[17]
*10 analog_io[18]
*11 analog_io[19]
*12 analog_io[1]
*13 analog_io[20]
*14 analog_io[21]
*15 analog_io[22]
*16 analog_io[23]
*17 analog_io[24]
*18 analog_io[25]
*19 analog_io[26]
*20 analog_io[27]
*21 analog_io[28]
*22 analog_io[2]
*23 analog_io[3]
*24 analog_io[4]
*25 analog_io[5]
*26 analog_io[6]
*27 analog_io[7]
*28 analog_io[8]
*29 analog_io[9]
*30 analog_trigger_in
*31 analog_trigger_out
*32 io_in[0]
*33 io_in[10]
*34 io_in[11]
*35 io_in[12]
*36 io_in[13]
*37 io_in[14]
*38 io_in[15]
*39 io_in[16]
*40 io_in[17]
*41 io_in[18]
*42 io_in[19]
*43 io_in[1]
*44 io_in[20]
*45 io_in[21]
*46 io_in[22]
*47 io_in[23]
*48 io_in[24]
*49 io_in[25]
*50 io_in[26]
*51 io_in[27]
*52 io_in[28]
*53 io_in[29]
*54 io_in[2]
*55 io_in[30]
*56 io_in[31]
*57 io_in[32]
*58 io_in[33]
*59 io_in[34]
*60 io_in[35]
*61 io_in[36]
*62 io_in[37]
*63 io_in[3]
*64 io_in[4]
*65 io_in[5]
*66 io_in[6]
*67 io_in[7]
*68 io_in[8]
*69 io_in[9]
*70 la_data_in[0]
*71 la_data_in[100]
*72 la_data_in[101]
*73 la_data_in[102]
*74 la_data_in[103]
*75 la_data_in[104]
*76 la_data_in[105]
*77 la_data_in[106]
*78 la_data_in[107]
*79 la_data_in[108]
*80 la_data_in[109]
*81 la_data_in[10]
*82 la_data_in[110]
*83 la_data_in[111]
*84 la_data_in[112]
*85 la_data_in[113]
*86 la_data_in[114]
*87 la_data_in[115]
*88 la_data_in[116]
*89 la_data_in[117]
*90 la_data_in[118]
*91 la_data_in[119]
*92 la_data_in[11]
*93 la_data_in[120]
*94 la_data_in[121]
*95 la_data_in[122]
*96 la_data_in[123]
*97 la_data_in[124]
*98 la_data_in[125]
*99 la_data_in[126]
*100 la_data_in[127]
*101 la_data_in[12]
*102 la_data_in[13]
*103 la_data_in[14]
*104 la_data_in[15]
*105 la_data_in[16]
*106 la_data_in[17]
*107 la_data_in[18]
*108 la_data_in[19]
*109 la_data_in[1]
*110 la_data_in[20]
*111 la_data_in[21]
*112 la_data_in[22]
*113 la_data_in[23]
*114 la_data_in[24]
*115 la_data_in[25]
*116 la_data_in[26]
*117 la_data_in[27]
*118 la_data_in[28]
*119 la_data_in[29]
*120 la_data_in[2]
*121 la_data_in[30]
*122 la_data_in[31]
*123 la_data_in[32]
*124 la_data_in[33]
*125 la_data_in[34]
*126 la_data_in[35]
*127 la_data_in[36]
*128 la_data_in[37]
*129 la_data_in[38]
*130 la_data_in[39]
*131 la_data_in[3]
*132 la_data_in[40]
*133 la_data_in[41]
*134 la_data_in[42]
*135 la_data_in[43]
*136 la_data_in[44]
*137 la_data_in[45]
*138 la_data_in[46]
*139 la_data_in[47]
*140 la_data_in[48]
*141 la_data_in[49]
*142 la_data_in[4]
*143 la_data_in[50]
*144 la_data_in[51]
*145 la_data_in[52]
*146 la_data_in[53]
*147 la_data_in[54]
*148 la_data_in[55]
*149 la_data_in[56]
*150 la_data_in[57]
*151 la_data_in[58]
*152 la_data_in[59]
*153 la_data_in[5]
*154 la_data_in[60]
*155 la_data_in[61]
*156 la_data_in[62]
*157 la_data_in[63]
*158 la_data_in[64]
*159 la_data_in[65]
*160 la_data_in[66]
*161 la_data_in[67]
*162 la_data_in[68]
*163 la_data_in[69]
*164 la_data_in[6]
*165 la_data_in[70]
*166 la_data_in[71]
*167 la_data_in[72]
*168 la_data_in[73]
*169 la_data_in[74]
*170 la_data_in[75]
*171 la_data_in[76]
*172 la_data_in[77]
*173 la_data_in[78]
*174 la_data_in[79]
*175 la_data_in[7]
*176 la_data_in[80]
*177 la_data_in[81]
*178 la_data_in[82]
*179 la_data_in[83]
*180 la_data_in[84]
*181 la_data_in[85]
*182 la_data_in[86]
*183 la_data_in[87]
*184 la_data_in[88]
*185 la_data_in[89]
*186 la_data_in[8]
*187 la_data_in[90]
*188 la_data_in[91]
*189 la_data_in[92]
*190 la_data_in[93]
*191 la_data_in[94]
*192 la_data_in[95]
*193 la_data_in[96]
*194 la_data_in[97]
*195 la_data_in[98]
*196 la_data_in[99]
*197 la_data_in[9]
*198 la_oenb[0]
*199 la_oenb[100]
*200 la_oenb[101]
*201 la_oenb[102]
*202 la_oenb[103]
*203 la_oenb[104]
*204 la_oenb[105]
*205 la_oenb[106]
*206 la_oenb[107]
*207 la_oenb[108]
*208 la_oenb[109]
*209 la_oenb[10]
*210 la_oenb[110]
*211 la_oenb[111]
*212 la_oenb[112]
*213 la_oenb[113]
*214 la_oenb[114]
*215 la_oenb[115]
*216 la_oenb[116]
*217 la_oenb[117]
*218 la_oenb[118]
*219 la_oenb[119]
*220 la_oenb[11]
*221 la_oenb[120]
*222 la_oenb[121]
*223 la_oenb[122]
*224 la_oenb[123]
*225 la_oenb[124]
*226 la_oenb[125]
*227 la_oenb[126]
*228 la_oenb[127]
*229 la_oenb[12]
*230 la_oenb[13]
*231 la_oenb[14]
*232 la_oenb[15]
*233 la_oenb[16]
*234 la_oenb[17]
*235 la_oenb[18]
*236 la_oenb[19]
*237 la_oenb[1]
*238 la_oenb[20]
*239 la_oenb[21]
*240 la_oenb[22]
*241 la_oenb[23]
*242 la_oenb[24]
*243 la_oenb[25]
*244 la_oenb[26]
*245 la_oenb[27]
*246 la_oenb[28]
*247 la_oenb[29]
*248 la_oenb[2]
*249 la_oenb[30]
*250 la_oenb[31]
*251 la_oenb[32]
*252 la_oenb[33]
*253 la_oenb[34]
*254 la_oenb[35]
*255 la_oenb[36]
*256 la_oenb[37]
*257 la_oenb[38]
*258 la_oenb[39]
*259 la_oenb[3]
*260 la_oenb[40]
*261 la_oenb[41]
*262 la_oenb[42]
*263 la_oenb[43]
*264 la_oenb[44]
*265 la_oenb[45]
*266 la_oenb[46]
*267 la_oenb[47]
*268 la_oenb[48]
*269 la_oenb[49]
*270 la_oenb[4]
*271 la_oenb[50]
*272 la_oenb[51]
*273 la_oenb[52]
*274 la_oenb[53]
*275 la_oenb[54]
*276 la_oenb[55]
*277 la_oenb[56]
*278 la_oenb[57]
*279 la_oenb[58]
*280 la_oenb[59]
*281 la_oenb[5]
*282 la_oenb[60]
*283 la_oenb[61]
*284 la_oenb[62]
*285 la_oenb[63]
*286 la_oenb[64]
*287 la_oenb[65]
*288 la_oenb[66]
*289 la_oenb[67]
*290 la_oenb[68]
*291 la_oenb[69]
*292 la_oenb[6]
*293 la_oenb[70]
*294 la_oenb[71]
*295 la_oenb[72]
*296 la_oenb[73]
*297 la_oenb[74]
*298 la_oenb[75]
*299 la_oenb[76]
*300 la_oenb[77]
*301 la_oenb[78]
*302 la_oenb[79]
*303 la_oenb[7]
*304 la_oenb[80]
*305 la_oenb[81]
*306 la_oenb[82]
*307 la_oenb[83]
*308 la_oenb[84]
*309 la_oenb[85]
*310 la_oenb[86]
*311 la_oenb[87]
*312 la_oenb[88]
*313 la_oenb[89]
*314 la_oenb[8]
*315 la_oenb[90]
*316 la_oenb[91]
*317 la_oenb[92]
*318 la_oenb[93]
*319 la_oenb[94]
*320 la_oenb[95]
*321 la_oenb[96]
*322 la_oenb[97]
*323 la_oenb[98]
*324 la_oenb[99]
*325 la_oenb[9]
*326 pwm_fall_out
*327 pwm_rise_out
*328 user_clock2
*331 wb_clk_i
*332 wb_rst_i
*333 wbs_ack_o
*334 wbs_adr_i[0]
*335 wbs_adr_i[10]
*336 wbs_adr_i[11]
*337 wbs_adr_i[12]
*338 wbs_adr_i[13]
*339 wbs_adr_i[14]
*340 wbs_adr_i[15]
*341 wbs_adr_i[16]
*342 wbs_adr_i[17]
*343 wbs_adr_i[18]
*344 wbs_adr_i[19]
*345 wbs_adr_i[1]
*346 wbs_adr_i[20]
*347 wbs_adr_i[21]
*348 wbs_adr_i[22]
*349 wbs_adr_i[23]
*350 wbs_adr_i[24]
*351 wbs_adr_i[25]
*352 wbs_adr_i[26]
*353 wbs_adr_i[27]
*354 wbs_adr_i[28]
*355 wbs_adr_i[29]
*356 wbs_adr_i[2]
*357 wbs_adr_i[30]
*358 wbs_adr_i[31]
*359 wbs_adr_i[3]
*360 wbs_adr_i[4]
*361 wbs_adr_i[5]
*362 wbs_adr_i[6]
*363 wbs_adr_i[7]
*364 wbs_adr_i[8]
*365 wbs_adr_i[9]
*366 wbs_cyc_i
*367 wbs_dat_i[0]
*368 wbs_dat_i[10]
*369 wbs_dat_i[11]
*370 wbs_dat_i[12]
*371 wbs_dat_i[13]
*372 wbs_dat_i[14]
*373 wbs_dat_i[15]
*374 wbs_dat_i[16]
*375 wbs_dat_i[17]
*376 wbs_dat_i[18]
*377 wbs_dat_i[19]
*378 wbs_dat_i[1]
*379 wbs_dat_i[20]
*380 wbs_dat_i[21]
*381 wbs_dat_i[22]
*382 wbs_dat_i[23]
*383 wbs_dat_i[24]
*384 wbs_dat_i[25]
*385 wbs_dat_i[26]
*386 wbs_dat_i[27]
*387 wbs_dat_i[28]
*388 wbs_dat_i[29]
*389 wbs_dat_i[2]
*390 wbs_dat_i[30]
*391 wbs_dat_i[31]
*392 wbs_dat_i[3]
*393 wbs_dat_i[4]
*394 wbs_dat_i[5]
*395 wbs_dat_i[6]
*396 wbs_dat_i[7]
*397 wbs_dat_i[8]
*398 wbs_dat_i[9]
*399 wbs_dat_o[0]
*400 wbs_dat_o[10]
*401 wbs_dat_o[11]
*402 wbs_dat_o[12]
*403 wbs_dat_o[13]
*404 wbs_dat_o[14]
*405 wbs_dat_o[15]
*406 wbs_dat_o[16]
*407 wbs_dat_o[17]
*408 wbs_dat_o[18]
*409 wbs_dat_o[19]
*410 wbs_dat_o[1]
*411 wbs_dat_o[20]
*412 wbs_dat_o[21]
*413 wbs_dat_o[22]
*414 wbs_dat_o[23]
*415 wbs_dat_o[24]
*416 wbs_dat_o[25]
*417 wbs_dat_o[26]
*418 wbs_dat_o[27]
*419 wbs_dat_o[28]
*420 wbs_dat_o[29]
*421 wbs_dat_o[2]
*422 wbs_dat_o[30]
*423 wbs_dat_o[31]
*424 wbs_dat_o[3]
*425 wbs_dat_o[4]
*426 wbs_dat_o[5]
*427 wbs_dat_o[6]
*428 wbs_dat_o[7]
*429 wbs_dat_o[8]
*430 wbs_dat_o[9]
*431 wbs_sel_i[0]
*432 wbs_sel_i[1]
*433 wbs_sel_i[2]
*434 wbs_sel_i[3]
*435 wbs_stb_i
*436 wbs_we_i
*437 _000_
*438 _001_
*439 _002_
*440 _003_
*441 _004_
*442 _005_
*443 _006_
*444 _007_
*445 _008_
*446 _009_
*447 _010_
*448 _011_
*449 _012_
*450 _013_
*451 _014_
*452 _015_
*453 _016_
*454 _017_
*455 _018_
*456 _019_
*457 _020_
*458 _021_
*459 _022_
*460 _023_
*461 _024_
*462 _025_
*463 _026_
*464 _027_
*465 _028_
*466 _029_
*467 _030_
*468 _031_
*469 _032_
*470 _033_
*471 _034_
*472 _035_
*473 _036_
*474 _037_
*475 _038_
*476 _039_
*477 _040_
*478 _041_
*479 _042_
*480 _043_
*481 _044_
*482 _045_
*483 _046_
*484 _047_
*485 _048_
*486 _049_
*487 _050_
*488 _051_
*489 _052_
*490 _053_
*491 _054_
*492 _055_
*493 _056_
*494 _057_
*495 _058_
*496 _059_
*497 _060_
*498 _061_
*499 _062_
*500 _063_
*501 _064_
*502 _065_
*503 _066_
*504 _067_
*505 _068_
*506 _069_
*507 _070_
*508 _071_
*509 _072_
*510 _073_
*511 _074_
*512 _075_
*513 _076_
*514 _077_
*515 _078_
*516 _079_
*517 _080_
*518 _081_
*519 _082_
*520 _083_
*521 _084_
*522 _085_
*523 _086_
*524 _087_
*525 _088_
*526 _089_
*527 _090_
*528 _091_
*529 _092_
*530 _093_
*531 _094_
*532 _095_
*533 net1
*534 net10
*535 net100
*536 net101
*537 net102
*538 net103
*539 net104
*540 net105
*541 net106
*542 net107
*543 net108
*544 net109
*545 net11
*546 net110
*547 net111
*548 net112
*549 net113
*550 net114
*551 net115
*552 net116
*553 net117
*554 net118
*555 net119
*556 net12
*557 net120
*558 net121
*559 net122
*560 net123
*561 net13
*562 net14
*563 net15
*564 net16
*565 net17
*566 net18
*567 net19
*568 net2
*569 net20
*570 net21
*571 net22
*572 net23
*573 net24
*574 net25
*575 net26
*576 net27
*577 net28
*578 net29
*579 net3
*580 net30
*581 net31
*582 net32
*583 net33
*584 net34
*585 net35
*586 net36
*587 net37
*588 net38
*589 net39
*590 net4
*591 net40
*592 net41
*593 net42
*594 net43
*595 net44
*596 net45
*597 net46
*598 net47
*599 net48
*600 net49
*601 net5
*602 net50
*603 net51
*604 net52
*605 net53
*606 net54
*607 net55
*608 net56
*609 net57
*610 net58
*611 net59
*612 net6
*613 net60
*614 net61
*615 net62
*616 net63
*617 net64
*618 net65
*619 net66
*620 net67
*621 net68
*622 net69
*623 net7
*624 net70
*625 net71
*626 net72
*627 net73
*628 net74
*629 net75
*630 net76
*631 net77
*632 net78
*633 net79
*634 net8
*635 net80
*636 net81
*637 net82
*638 net83
*639 net84
*640 net85
*641 net86
*642 net87
*643 net88
*644 net89
*645 net9
*646 net90
*647 net91
*648 net92
*649 net93
*650 net94
*651 net95
*652 net96
*653 net97
*654 net98
*655 net99
*656 pwm_counter0\.count\[0\]
*657 pwm_counter0\.count\[1\]
*658 pwm_counter0\.count\[2\]
*659 pwm_counter0\.count\[3\]
*660 pwm_counter0\.count\[4\]
*661 pwm_counter0\.count\[5\]
*662 pwm_counter0\.count\[6\]
*663 pwm_counter0\.count\[7\]
*664 pwm_fall_detector\.pos\[0\]
*665 pwm_fall_detector\.pos\[1\]
*666 pwm_fall_detector\.pos\[2\]
*667 pwm_fall_detector\.pos\[3\]
*668 pwm_fall_detector\.pos\[4\]
*669 pwm_fall_detector\.pos\[5\]
*670 pwm_fall_detector\.pos\[6\]
*671 pwm_fall_detector\.pos\[7\]
*672 pwm_rise_detector\.pos\[0\]
*673 pwm_rise_detector\.pos\[1\]
*674 pwm_rise_detector\.pos\[2\]
*675 pwm_rise_detector\.pos\[3\]
*676 pwm_rise_detector\.pos\[4\]
*677 pwm_rise_detector\.pos\[5\]
*678 pwm_rise_detector\.pos\[6\]
*679 pwm_rise_detector\.pos\[7\]
*680 ANTENNA_1
*681 ANTENNA__103__A
*682 ANTENNA__124__B
*683 ANTENNA__129__A
*684 ANTENNA__131__A
*685 ANTENNA__133__B1
*686 ANTENNA__137__A
*687 ANTENNA__139__A
*688 ANTENNA__141__B1
*689 ANTENNA__143__A
*690 ANTENNA__143__B
*691 ANTENNA__143__C
*692 ANTENNA__143__D
*693 ANTENNA__144__A
*694 ANTENNA__144__B
*695 ANTENNA__144__C
*696 ANTENNA__144__D
*697 ANTENNA__145__A
*698 ANTENNA__145__B
*699 ANTENNA__145__C
*700 ANTENNA__145__D
*701 ANTENNA__146__B
*702 ANTENNA__146__C
*703 ANTENNA__147__A
*704 ANTENNA__147__B
*705 ANTENNA__147__C
*706 ANTENNA__147__D
*707 ANTENNA__148__A
*708 ANTENNA__148__B
*709 ANTENNA__148__C
*710 ANTENNA__148__D
*711 ANTENNA__149__A
*712 ANTENNA__149__B
*713 ANTENNA__149__C_N
*714 ANTENNA__149__D_N
*715 ANTENNA__150__A
*716 ANTENNA__150__B
*717 ANTENNA__150__C
*718 ANTENNA__150__D
*719 ANTENNA__151__C
*720 ANTENNA__151__D
*721 ANTENNA__152__A
*722 ANTENNA__152__B
*723 ANTENNA__153__A
*724 ANTENNA__153__B
*725 ANTENNA__153__C
*726 ANTENNA__153__D
*727 ANTENNA__154__A
*728 ANTENNA__154__B
*729 ANTENNA__154__C
*730 ANTENNA__154__D_N
*731 ANTENNA__155__A_N
*732 ANTENNA__156__A
*733 ANTENNA__157__A
*734 ANTENNA__157__B
*735 ANTENNA__157__C
*736 ANTENNA__158__B
*737 ANTENNA__158__C
*738 ANTENNA__161__A1
*739 ANTENNA__163__A1
*740 ANTENNA__165__A1
*741 ANTENNA__167__A1
*742 ANTENNA__169__A1
*743 ANTENNA__171__A1
*744 ANTENNA__173__A1
*745 ANTENNA__175__A1
*746 ANTENNA__176__B
*747 ANTENNA__176__C
*748 ANTENNA__179__A1
*749 ANTENNA__181__A1
*750 ANTENNA__183__A1
*751 ANTENNA__185__A1
*752 ANTENNA__187__A1
*753 ANTENNA__189__A1
*754 ANTENNA__191__A1
*755 ANTENNA__193__A1
*756 ANTENNA__194__CLK
*757 ANTENNA__195__CLK
*758 ANTENNA__196__CLK
*759 ANTENNA__197__CLK
*760 ANTENNA__198__CLK
*761 ANTENNA__199__CLK
*762 ANTENNA__200__CLK
*763 ANTENNA__201__CLK
*764 ANTENNA__202__CLK
*765 ANTENNA__203__CLK
*766 ANTENNA__204__CLK
*767 ANTENNA__205__CLK
*768 ANTENNA__206__CLK
*769 ANTENNA__207__CLK
*770 ANTENNA__208__CLK
*771 ANTENNA__209__CLK
*772 ANTENNA__210__CLK
*773 ANTENNA__211__CLK
*774 ANTENNA__212__CLK
*775 ANTENNA__213__CLK
*776 ANTENNA__214__CLK
*777 ANTENNA__215__CLK
*778 ANTENNA__216__CLK
*779 ANTENNA__217__CLK
*780 ANTENNA__218__CLK
*781 ANTENNA__219__A
*782 ANTENNA__219__A_123
*783 ANTENNA__220__A
*784 ANTENNA__220__A_95
*785 ANTENNA__221__A
*786 ANTENNA__221__A_94
*787 ANTENNA__222__A
*788 ANTENNA__222__A_93
*789 ANTENNA__223__A
*790 ANTENNA__223__A_122
*791 ANTENNA__224__A
*792 ANTENNA__224__A_92
*793 ANTENNA__225__A
*794 ANTENNA__225__A_91
*795 ANTENNA__226__A
*796 ANTENNA__226__A_90
*797 ANTENNA__227__A
*798 ANTENNA__227__A_121
*799 ANTENNA__228__A
*800 ANTENNA__228__A_120
*801 ANTENNA__229__A
*802 ANTENNA__229__A_89
*803 ANTENNA__230__A
*804 ANTENNA__230__A_88
*805 ANTENNA__231__A
*806 ANTENNA__231__A_119
*807 ANTENNA__232__A
*808 ANTENNA__232__A_118
*809 ANTENNA__233__A
*810 ANTENNA__233__A_87
*811 ANTENNA__234__A
*812 ANTENNA__234__A_86
*813 ANTENNA__235__A
*814 ANTENNA__235__A_117
*815 ANTENNA__236__A
*816 ANTENNA__236__A_85
*817 ANTENNA__237__A
*818 ANTENNA__237__A_116
*819 ANTENNA__238__A
*820 ANTENNA__238__A_84
*821 ANTENNA__239__A
*822 ANTENNA__239__A_115
*823 ANTENNA__240__A
*824 ANTENNA__240__A_83
*825 ANTENNA__241__A
*826 ANTENNA__241__A_114
*827 ANTENNA__242__A
*828 ANTENNA__242__A_82
*829 ANTENNA__243__A
*830 ANTENNA__243__A_81
*831 ANTENNA__244__A
*832 ANTENNA__244__A_113
*833 ANTENNA__245__A
*834 ANTENNA__245__A_80
*835 ANTENNA__246__A
*836 ANTENNA__246__A_112
*837 ANTENNA__247__A
*838 ANTENNA__247__A_79
*839 ANTENNA__248__A
*840 ANTENNA__248__A_111
*841 ANTENNA__249__A
*842 ANTENNA__249__A_78
*843 ANTENNA__250__A
*844 ANTENNA__250__A_110
*845 FILLER_0_0_1005
*846 FILLER_0_0_1009
*847 FILLER_0_0_1015
*848 FILLER_0_0_1027
*849 FILLER_0_0_1035
*850 FILLER_0_0_1037
*851 FILLER_0_0_1051
*852 FILLER_0_0_106
*853 FILLER_0_0_1063
*854 FILLER_0_0_1065
*855 FILLER_0_0_1069
*856 FILLER_0_0_1081
*857 FILLER_0_0_1089
*858 FILLER_0_0_1093
*859 FILLER_0_0_11
*860 FILLER_0_0_1105
*861 FILLER_0_0_1117
*862 FILLER_0_0_1121
*863 FILLER_0_0_113
*864 FILLER_0_0_1133
*865 FILLER_0_0_1145
*866 FILLER_0_0_1149
*867 FILLER_0_0_1161
*868 FILLER_0_0_1173
*869 FILLER_0_0_1177
*870 FILLER_0_0_1185
*871 FILLER_0_0_1189
*872 FILLER_0_0_1201
*873 FILLER_0_0_1205
*874 FILLER_0_0_1217
*875 FILLER_0_0_1229
*876 FILLER_0_0_1233
*877 FILLER_0_0_1242
*878 FILLER_0_0_125
*879 FILLER_0_0_1254
*880 FILLER_0_0_1261
*881 FILLER_0_0_1273
*882 FILLER_0_0_1285
*883 FILLER_0_0_1289
*884 FILLER_0_0_1295
*885 FILLER_0_0_1303
*886 FILLER_0_0_1309
*887 FILLER_0_0_1315
*888 FILLER_0_0_1317
*889 FILLER_0_0_1329
*890 FILLER_0_0_1341
*891 FILLER_0_0_1345
*892 FILLER_0_0_135
*893 FILLER_0_0_1357
*894 FILLER_0_0_1369
*895 FILLER_0_0_1373
*896 FILLER_0_0_1385
*897 FILLER_0_0_139
*898 FILLER_0_0_1397
*899 FILLER_0_0_1401
*900 FILLER_0_0_141
*901 FILLER_0_0_1413
*902 FILLER_0_0_1425
*903 FILLER_0_0_1429
*904 FILLER_0_0_1441
*905 FILLER_0_0_1453
*906 FILLER_0_0_1457
*907 FILLER_0_0_1469
*908 FILLER_0_0_1481
*909 FILLER_0_0_1485
*910 FILLER_0_0_1497
*911 FILLER_0_0_1509
*912 FILLER_0_0_1513
*913 FILLER_0_0_1525
*914 FILLER_0_0_153
*915 FILLER_0_0_1537
*916 FILLER_0_0_1541
*917 FILLER_0_0_1548
*918 FILLER_0_0_1560
*919 FILLER_0_0_1569
*920 FILLER_0_0_1581
*921 FILLER_0_0_1595
*922 FILLER_0_0_1597
*923 FILLER_0_0_165
*924 FILLER_0_0_169
*925 FILLER_0_0_17
*926 FILLER_0_0_174
*927 FILLER_0_0_186
*928 FILLER_0_0_194
*929 FILLER_0_0_197
*930 FILLER_0_0_209
*931 FILLER_0_0_221
*932 FILLER_0_0_225
*933 FILLER_0_0_233
*934 FILLER_0_0_240
*935 FILLER_0_0_25
*936 FILLER_0_0_253
*937 FILLER_0_0_260
*938 FILLER_0_0_272
*939 FILLER_0_0_281
*940 FILLER_0_0_29
*941 FILLER_0_0_293
*942 FILLER_0_0_3
*943 FILLER_0_0_305
*944 FILLER_0_0_309
*945 FILLER_0_0_321
*946 FILLER_0_0_327
*947 FILLER_0_0_331
*948 FILLER_0_0_335
*949 FILLER_0_0_337
*950 FILLER_0_0_349
*951 FILLER_0_0_361
*952 FILLER_0_0_365
*953 FILLER_0_0_377
*954 FILLER_0_0_389
*955 FILLER_0_0_393
*956 FILLER_0_0_405
*957 FILLER_0_0_41
*958 FILLER_0_0_417
*959 FILLER_0_0_421
*960 FILLER_0_0_433
*961 FILLER_0_0_445
*962 FILLER_0_0_449
*963 FILLER_0_0_461
*964 FILLER_0_0_473
*965 FILLER_0_0_477
*966 FILLER_0_0_489
*967 FILLER_0_0_501
*968 FILLER_0_0_505
*969 FILLER_0_0_510
*970 FILLER_0_0_522
*971 FILLER_0_0_53
*972 FILLER_0_0_530
*973 FILLER_0_0_533
*974 FILLER_0_0_545
*975 FILLER_0_0_557
*976 FILLER_0_0_561
*977 FILLER_0_0_57
*978 FILLER_0_0_573
*979 FILLER_0_0_585
*980 FILLER_0_0_589
*981 FILLER_0_0_595
*982 FILLER_0_0_599
*983 FILLER_0_0_611
*984 FILLER_0_0_615
*985 FILLER_0_0_617
*986 FILLER_0_0_624
*987 FILLER_0_0_636
*988 FILLER_0_0_645
*989 FILLER_0_0_65
*990 FILLER_0_0_657
*991 FILLER_0_0_669
*992 FILLER_0_0_673
*993 FILLER_0_0_685
*994 FILLER_0_0_697
*995 FILLER_0_0_701
*996 FILLER_0_0_713
*997 FILLER_0_0_725
*998 FILLER_0_0_729
*999 FILLER_0_0_741
*1000 FILLER_0_0_753
*1001 FILLER_0_0_757
*1002 FILLER_0_0_769
*1003 FILLER_0_0_77
*1004 FILLER_0_0_779
*1005 FILLER_0_0_783
*1006 FILLER_0_0_785
*1007 FILLER_0_0_797
*1008 FILLER_0_0_809
*1009 FILLER_0_0_813
*1010 FILLER_0_0_825
*1011 FILLER_0_0_83
*1012 FILLER_0_0_837
*1013 FILLER_0_0_841
*1014 FILLER_0_0_845
*1015 FILLER_0_0_848
*1016 FILLER_0_0_85
*1017 FILLER_0_0_860
*1018 FILLER_0_0_869
*1019 FILLER_0_0_874
*1020 FILLER_0_0_886
*1021 FILLER_0_0_894
*1022 FILLER_0_0_897
*1023 FILLER_0_0_902
*1024 FILLER_0_0_914
*1025 FILLER_0_0_922
*1026 FILLER_0_0_925
*1027 FILLER_0_0_937
*1028 FILLER_0_0_949
*1029 FILLER_0_0_953
*1030 FILLER_0_0_965
*1031 FILLER_0_0_97
*1032 FILLER_0_0_977
*1033 FILLER_0_0_981
*1034 FILLER_0_0_993
*1035 FILLER_0_100_1005
*1036 FILLER_0_100_1017
*1037 FILLER_0_100_1029
*1038 FILLER_0_100_1035
*1039 FILLER_0_100_1037
*1040 FILLER_0_100_1054
*1041 FILLER_0_100_1063
*1042 FILLER_0_100_1067
*1043 FILLER_0_100_1075
*1044 FILLER_0_100_1081
*1045 FILLER_0_100_1085
*1046 FILLER_0_100_1089
*1047 FILLER_0_100_109
*1048 FILLER_0_100_1093
*1049 FILLER_0_100_1098
*1050 FILLER_0_100_1117
*1051 FILLER_0_100_1121
*1052 FILLER_0_100_1133
*1053 FILLER_0_100_1145
*1054 FILLER_0_100_1149
*1055 FILLER_0_100_1161
*1056 FILLER_0_100_1173
*1057 FILLER_0_100_1185
*1058 FILLER_0_100_1197
*1059 FILLER_0_100_1203
*1060 FILLER_0_100_1205
*1061 FILLER_0_100_121
*1062 FILLER_0_100_1217
*1063 FILLER_0_100_1229
*1064 FILLER_0_100_1241
*1065 FILLER_0_100_1253
*1066 FILLER_0_100_1259
*1067 FILLER_0_100_1261
*1068 FILLER_0_100_1273
*1069 FILLER_0_100_1285
*1070 FILLER_0_100_1297
*1071 FILLER_0_100_1309
*1072 FILLER_0_100_1315
*1073 FILLER_0_100_1317
*1074 FILLER_0_100_1329
*1075 FILLER_0_100_133
*1076 FILLER_0_100_1341
*1077 FILLER_0_100_1353
*1078 FILLER_0_100_1365
*1079 FILLER_0_100_1371
*1080 FILLER_0_100_1373
*1081 FILLER_0_100_1385
*1082 FILLER_0_100_139
*1083 FILLER_0_100_1397
*1084 FILLER_0_100_1409
*1085 FILLER_0_100_141
*1086 FILLER_0_100_1421
*1087 FILLER_0_100_1427
*1088 FILLER_0_100_1429
*1089 FILLER_0_100_1441
*1090 FILLER_0_100_1453
*1091 FILLER_0_100_1465
*1092 FILLER_0_100_1477
*1093 FILLER_0_100_1483
*1094 FILLER_0_100_1485
*1095 FILLER_0_100_1497
*1096 FILLER_0_100_15
*1097 FILLER_0_100_1509
*1098 FILLER_0_100_1521
*1099 FILLER_0_100_153
*1100 FILLER_0_100_1533
*1101 FILLER_0_100_1539
*1102 FILLER_0_100_1541
*1103 FILLER_0_100_1553
*1104 FILLER_0_100_1565
*1105 FILLER_0_100_1577
*1106 FILLER_0_100_1589
*1107 FILLER_0_100_1595
*1108 FILLER_0_100_1597
*1109 FILLER_0_100_165
*1110 FILLER_0_100_177
*1111 FILLER_0_100_189
*1112 FILLER_0_100_195
*1113 FILLER_0_100_197
*1114 FILLER_0_100_209
*1115 FILLER_0_100_221
*1116 FILLER_0_100_233
*1117 FILLER_0_100_245
*1118 FILLER_0_100_251
*1119 FILLER_0_100_253
*1120 FILLER_0_100_265
*1121 FILLER_0_100_27
*1122 FILLER_0_100_277
*1123 FILLER_0_100_289
*1124 FILLER_0_100_29
*1125 FILLER_0_100_3
*1126 FILLER_0_100_301
*1127 FILLER_0_100_307
*1128 FILLER_0_100_309
*1129 FILLER_0_100_321
*1130 FILLER_0_100_333
*1131 FILLER_0_100_345
*1132 FILLER_0_100_357
*1133 FILLER_0_100_363
*1134 FILLER_0_100_365
*1135 FILLER_0_100_377
*1136 FILLER_0_100_389
*1137 FILLER_0_100_401
*1138 FILLER_0_100_41
*1139 FILLER_0_100_413
*1140 FILLER_0_100_419
*1141 FILLER_0_100_421
*1142 FILLER_0_100_433
*1143 FILLER_0_100_445
*1144 FILLER_0_100_457
*1145 FILLER_0_100_469
*1146 FILLER_0_100_475
*1147 FILLER_0_100_477
*1148 FILLER_0_100_489
*1149 FILLER_0_100_501
*1150 FILLER_0_100_513
*1151 FILLER_0_100_525
*1152 FILLER_0_100_53
*1153 FILLER_0_100_531
*1154 FILLER_0_100_533
*1155 FILLER_0_100_545
*1156 FILLER_0_100_557
*1157 FILLER_0_100_569
*1158 FILLER_0_100_581
*1159 FILLER_0_100_587
*1160 FILLER_0_100_589
*1161 FILLER_0_100_601
*1162 FILLER_0_100_613
*1163 FILLER_0_100_625
*1164 FILLER_0_100_637
*1165 FILLER_0_100_643
*1166 FILLER_0_100_645
*1167 FILLER_0_100_65
*1168 FILLER_0_100_657
*1169 FILLER_0_100_669
*1170 FILLER_0_100_681
*1171 FILLER_0_100_693
*1172 FILLER_0_100_699
*1173 FILLER_0_100_701
*1174 FILLER_0_100_713
*1175 FILLER_0_100_725
*1176 FILLER_0_100_737
*1177 FILLER_0_100_749
*1178 FILLER_0_100_755
*1179 FILLER_0_100_757
*1180 FILLER_0_100_769
*1181 FILLER_0_100_77
*1182 FILLER_0_100_781
*1183 FILLER_0_100_793
*1184 FILLER_0_100_805
*1185 FILLER_0_100_811
*1186 FILLER_0_100_813
*1187 FILLER_0_100_825
*1188 FILLER_0_100_83
*1189 FILLER_0_100_837
*1190 FILLER_0_100_849
*1191 FILLER_0_100_85
*1192 FILLER_0_100_861
*1193 FILLER_0_100_867
*1194 FILLER_0_100_869
*1195 FILLER_0_100_881
*1196 FILLER_0_100_893
*1197 FILLER_0_100_905
*1198 FILLER_0_100_917
*1199 FILLER_0_100_923
*1200 FILLER_0_100_925
*1201 FILLER_0_100_937
*1202 FILLER_0_100_949
*1203 FILLER_0_100_961
*1204 FILLER_0_100_97
*1205 FILLER_0_100_973
*1206 FILLER_0_100_979
*1207 FILLER_0_100_981
*1208 FILLER_0_100_993
*1209 FILLER_0_101_1001
*1210 FILLER_0_101_1007
*1211 FILLER_0_101_1009
*1212 FILLER_0_101_1021
*1213 FILLER_0_101_1033
*1214 FILLER_0_101_1045
*1215 FILLER_0_101_105
*1216 FILLER_0_101_1052
*1217 FILLER_0_101_1056
*1218 FILLER_0_101_1065
*1219 FILLER_0_101_1077
*1220 FILLER_0_101_1089
*1221 FILLER_0_101_1097
*1222 FILLER_0_101_1103
*1223 FILLER_0_101_1107
*1224 FILLER_0_101_111
*1225 FILLER_0_101_1119
*1226 FILLER_0_101_1121
*1227 FILLER_0_101_113
*1228 FILLER_0_101_1133
*1229 FILLER_0_101_1145
*1230 FILLER_0_101_1157
*1231 FILLER_0_101_1169
*1232 FILLER_0_101_1175
*1233 FILLER_0_101_1177
*1234 FILLER_0_101_1189
*1235 FILLER_0_101_1201
*1236 FILLER_0_101_1213
*1237 FILLER_0_101_1225
*1238 FILLER_0_101_1231
*1239 FILLER_0_101_1233
*1240 FILLER_0_101_1245
*1241 FILLER_0_101_125
*1242 FILLER_0_101_1257
*1243 FILLER_0_101_1269
*1244 FILLER_0_101_1281
*1245 FILLER_0_101_1287
*1246 FILLER_0_101_1289
*1247 FILLER_0_101_1301
*1248 FILLER_0_101_1313
*1249 FILLER_0_101_1325
*1250 FILLER_0_101_1337
*1251 FILLER_0_101_1343
*1252 FILLER_0_101_1345
*1253 FILLER_0_101_1357
*1254 FILLER_0_101_1369
*1255 FILLER_0_101_137
*1256 FILLER_0_101_1381
*1257 FILLER_0_101_1393
*1258 FILLER_0_101_1399
*1259 FILLER_0_101_1401
*1260 FILLER_0_101_1413
*1261 FILLER_0_101_1425
*1262 FILLER_0_101_1437
*1263 FILLER_0_101_1449
*1264 FILLER_0_101_1455
*1265 FILLER_0_101_1457
*1266 FILLER_0_101_1469
*1267 FILLER_0_101_1481
*1268 FILLER_0_101_149
*1269 FILLER_0_101_1493
*1270 FILLER_0_101_15
*1271 FILLER_0_101_1505
*1272 FILLER_0_101_1511
*1273 FILLER_0_101_1513
*1274 FILLER_0_101_1525
*1275 FILLER_0_101_1537
*1276 FILLER_0_101_1549
*1277 FILLER_0_101_1561
*1278 FILLER_0_101_1567
*1279 FILLER_0_101_1569
*1280 FILLER_0_101_1581
*1281 FILLER_0_101_1593
*1282 FILLER_0_101_1601
*1283 FILLER_0_101_161
*1284 FILLER_0_101_167
*1285 FILLER_0_101_169
*1286 FILLER_0_101_181
*1287 FILLER_0_101_193
*1288 FILLER_0_101_205
*1289 FILLER_0_101_217
*1290 FILLER_0_101_223
*1291 FILLER_0_101_225
*1292 FILLER_0_101_237
*1293 FILLER_0_101_249
*1294 FILLER_0_101_261
*1295 FILLER_0_101_27
*1296 FILLER_0_101_273
*1297 FILLER_0_101_279
*1298 FILLER_0_101_281
*1299 FILLER_0_101_293
*1300 FILLER_0_101_3
*1301 FILLER_0_101_305
*1302 FILLER_0_101_317
*1303 FILLER_0_101_329
*1304 FILLER_0_101_335
*1305 FILLER_0_101_337
*1306 FILLER_0_101_349
*1307 FILLER_0_101_361
*1308 FILLER_0_101_373
*1309 FILLER_0_101_385
*1310 FILLER_0_101_39
*1311 FILLER_0_101_391
*1312 FILLER_0_101_393
*1313 FILLER_0_101_405
*1314 FILLER_0_101_417
*1315 FILLER_0_101_429
*1316 FILLER_0_101_441
*1317 FILLER_0_101_447
*1318 FILLER_0_101_449
*1319 FILLER_0_101_461
*1320 FILLER_0_101_473
*1321 FILLER_0_101_485
*1322 FILLER_0_101_497
*1323 FILLER_0_101_503
*1324 FILLER_0_101_505
*1325 FILLER_0_101_51
*1326 FILLER_0_101_517
*1327 FILLER_0_101_529
*1328 FILLER_0_101_541
*1329 FILLER_0_101_55
*1330 FILLER_0_101_553
*1331 FILLER_0_101_559
*1332 FILLER_0_101_561
*1333 FILLER_0_101_57
*1334 FILLER_0_101_573
*1335 FILLER_0_101_585
*1336 FILLER_0_101_597
*1337 FILLER_0_101_609
*1338 FILLER_0_101_615
*1339 FILLER_0_101_617
*1340 FILLER_0_101_629
*1341 FILLER_0_101_641
*1342 FILLER_0_101_653
*1343 FILLER_0_101_665
*1344 FILLER_0_101_671
*1345 FILLER_0_101_673
*1346 FILLER_0_101_685
*1347 FILLER_0_101_69
*1348 FILLER_0_101_697
*1349 FILLER_0_101_709
*1350 FILLER_0_101_721
*1351 FILLER_0_101_727
*1352 FILLER_0_101_729
*1353 FILLER_0_101_741
*1354 FILLER_0_101_753
*1355 FILLER_0_101_765
*1356 FILLER_0_101_777
*1357 FILLER_0_101_783
*1358 FILLER_0_101_785
*1359 FILLER_0_101_797
*1360 FILLER_0_101_809
*1361 FILLER_0_101_81
*1362 FILLER_0_101_821
*1363 FILLER_0_101_833
*1364 FILLER_0_101_839
*1365 FILLER_0_101_841
*1366 FILLER_0_101_853
*1367 FILLER_0_101_865
*1368 FILLER_0_101_877
*1369 FILLER_0_101_889
*1370 FILLER_0_101_895
*1371 FILLER_0_101_897
*1372 FILLER_0_101_909
*1373 FILLER_0_101_921
*1374 FILLER_0_101_93
*1375 FILLER_0_101_933
*1376 FILLER_0_101_945
*1377 FILLER_0_101_951
*1378 FILLER_0_101_953
*1379 FILLER_0_101_965
*1380 FILLER_0_101_977
*1381 FILLER_0_101_989
*1382 FILLER_0_102_1005
*1383 FILLER_0_102_1017
*1384 FILLER_0_102_1029
*1385 FILLER_0_102_1035
*1386 FILLER_0_102_1037
*1387 FILLER_0_102_1049
*1388 FILLER_0_102_1055
*1389 FILLER_0_102_1062
*1390 FILLER_0_102_1074
*1391 FILLER_0_102_1084
*1392 FILLER_0_102_109
*1393 FILLER_0_102_1093
*1394 FILLER_0_102_1099
*1395 FILLER_0_102_1111
*1396 FILLER_0_102_1123
*1397 FILLER_0_102_1135
*1398 FILLER_0_102_1147
*1399 FILLER_0_102_1149
*1400 FILLER_0_102_1161
*1401 FILLER_0_102_1173
*1402 FILLER_0_102_1185
*1403 FILLER_0_102_1197
*1404 FILLER_0_102_1203
*1405 FILLER_0_102_1205
*1406 FILLER_0_102_121
*1407 FILLER_0_102_1217
*1408 FILLER_0_102_1229
*1409 FILLER_0_102_1241
*1410 FILLER_0_102_1253
*1411 FILLER_0_102_1259
*1412 FILLER_0_102_1261
*1413 FILLER_0_102_1273
*1414 FILLER_0_102_1285
*1415 FILLER_0_102_1297
*1416 FILLER_0_102_1309
*1417 FILLER_0_102_1315
*1418 FILLER_0_102_1317
*1419 FILLER_0_102_1329
*1420 FILLER_0_102_133
*1421 FILLER_0_102_1341
*1422 FILLER_0_102_1353
*1423 FILLER_0_102_1365
*1424 FILLER_0_102_1371
*1425 FILLER_0_102_1373
*1426 FILLER_0_102_1385
*1427 FILLER_0_102_139
*1428 FILLER_0_102_1397
*1429 FILLER_0_102_1409
*1430 FILLER_0_102_141
*1431 FILLER_0_102_1421
*1432 FILLER_0_102_1427
*1433 FILLER_0_102_1429
*1434 FILLER_0_102_1441
*1435 FILLER_0_102_1453
*1436 FILLER_0_102_1465
*1437 FILLER_0_102_1477
*1438 FILLER_0_102_1483
*1439 FILLER_0_102_1485
*1440 FILLER_0_102_1497
*1441 FILLER_0_102_15
*1442 FILLER_0_102_1509
*1443 FILLER_0_102_1521
*1444 FILLER_0_102_153
*1445 FILLER_0_102_1533
*1446 FILLER_0_102_1539
*1447 FILLER_0_102_1541
*1448 FILLER_0_102_1553
*1449 FILLER_0_102_1565
*1450 FILLER_0_102_1577
*1451 FILLER_0_102_1589
*1452 FILLER_0_102_1595
*1453 FILLER_0_102_1597
*1454 FILLER_0_102_165
*1455 FILLER_0_102_177
*1456 FILLER_0_102_189
*1457 FILLER_0_102_195
*1458 FILLER_0_102_197
*1459 FILLER_0_102_209
*1460 FILLER_0_102_221
*1461 FILLER_0_102_233
*1462 FILLER_0_102_245
*1463 FILLER_0_102_251
*1464 FILLER_0_102_253
*1465 FILLER_0_102_265
*1466 FILLER_0_102_27
*1467 FILLER_0_102_277
*1468 FILLER_0_102_289
*1469 FILLER_0_102_29
*1470 FILLER_0_102_3
*1471 FILLER_0_102_301
*1472 FILLER_0_102_307
*1473 FILLER_0_102_309
*1474 FILLER_0_102_321
*1475 FILLER_0_102_333
*1476 FILLER_0_102_345
*1477 FILLER_0_102_357
*1478 FILLER_0_102_363
*1479 FILLER_0_102_365
*1480 FILLER_0_102_377
*1481 FILLER_0_102_389
*1482 FILLER_0_102_401
*1483 FILLER_0_102_41
*1484 FILLER_0_102_413
*1485 FILLER_0_102_419
*1486 FILLER_0_102_421
*1487 FILLER_0_102_433
*1488 FILLER_0_102_445
*1489 FILLER_0_102_457
*1490 FILLER_0_102_469
*1491 FILLER_0_102_475
*1492 FILLER_0_102_477
*1493 FILLER_0_102_489
*1494 FILLER_0_102_501
*1495 FILLER_0_102_513
*1496 FILLER_0_102_525
*1497 FILLER_0_102_53
*1498 FILLER_0_102_531
*1499 FILLER_0_102_533
*1500 FILLER_0_102_545
*1501 FILLER_0_102_557
*1502 FILLER_0_102_569
*1503 FILLER_0_102_581
*1504 FILLER_0_102_587
*1505 FILLER_0_102_589
*1506 FILLER_0_102_601
*1507 FILLER_0_102_613
*1508 FILLER_0_102_625
*1509 FILLER_0_102_637
*1510 FILLER_0_102_643
*1511 FILLER_0_102_645