*SPEF "ieee 1481-1999"
*DESIGN "TOP_digital"
*DATE "11:11:11 Fri 11 11, 1111"
*VENDOR "OpenRCX"
*PROGRAM "Parallel Extraction"
*VERSION "1.0"
*DESIGN_FLOW "NAME_SCOPE LOCAL" "PIN_CAP NONE"
*DIVIDER /
*DELIMITER :
*BUS_DELIMITER []
*T_UNIT 1 NS
*C_UNIT 1 PF
*R_UNIT 1 OHM
*L_UNIT 1 HENRY

*NAME_MAP
*1 analog_io[0]
*2 analog_io[10]
*3 analog_io[11]
*4 analog_io[12]
*5 analog_io[13]
*6 analog_io[14]
*7 analog_io[15]
*8 analog_io[16]
*9 analog_io[17]
*10 analog_io[18]
*11 analog_io[19]
*12 analog_io[1]
*13 analog_io[20]
*14 analog_io[21]
*15 analog_io[22]
*16 analog_io[23]
*17 analog_io[24]
*18 analog_io[25]
*19 analog_io[26]
*20 analog_io[27]
*21 analog_io[28]
*22 analog_io[2]
*23 analog_io[3]
*24 analog_io[4]
*25 analog_io[5]
*26 analog_io[6]
*27 analog_io[7]
*28 analog_io[8]
*29 analog_io[9]
*30 analog_trigger_in
*31 analog_trigger_out
*32 io_in[0]
*33 io_in[10]
*34 io_in[11]
*35 io_in[12]
*36 io_in[13]
*37 io_in[14]
*38 io_in[15]
*39 io_in[16]
*40 io_in[17]
*41 io_in[18]
*42 io_in[19]
*43 io_in[1]
*44 io_in[20]
*45 io_in[21]
*46 io_in[22]
*47 io_in[23]
*48 io_in[24]
*49 io_in[25]
*50 io_in[26]
*51 io_in[27]
*52 io_in[28]
*53 io_in[29]
*54 io_in[2]
*55 io_in[30]
*56 io_in[31]
*57 io_in[32]
*58 io_in[33]
*59 io_in[34]
*60 io_in[35]
*61 io_in[36]
*62 io_in[37]
*63 io_in[3]
*64 io_in[4]
*65 io_in[5]
*66 io_in[6]
*67 io_in[7]
*68 io_in[8]
*69 io_in[9]
*70 io_oeb[0]
*71 io_oeb[10]
*72 io_oeb[11]
*73 io_oeb[12]
*74 io_oeb[13]
*75 io_oeb[14]
*76 io_oeb[15]
*77 io_oeb[16]
*78 io_oeb[17]
*79 io_oeb[18]
*80 io_oeb[19]
*81 io_oeb[1]
*82 io_oeb[20]
*83 io_oeb[21]
*84 io_oeb[22]
*85 io_oeb[23]
*86 io_oeb[24]
*87 io_oeb[25]
*88 io_oeb[26]
*89 io_oeb[27]
*90 io_oeb[28]
*91 io_oeb[29]
*92 io_oeb[2]
*93 io_oeb[30]
*94 io_oeb[31]
*95 io_oeb[32]
*96 io_oeb[33]
*97 io_oeb[34]
*98 io_oeb[35]
*99 io_oeb[36]
*100 io_oeb[37]
*101 io_oeb[3]
*102 io_oeb[4]
*103 io_oeb[5]
*104 io_oeb[6]
*105 io_oeb[7]
*106 io_oeb[8]
*107 io_oeb[9]
*108 io_out[0]
*109 io_out[10]
*110 io_out[11]
*111 io_out[12]
*112 io_out[13]
*113 io_out[14]
*114 io_out[15]
*115 io_out[16]
*116 io_out[17]
*117 io_out[18]
*118 io_out[19]
*119 io_out[1]
*120 io_out[20]
*121 io_out[21]
*122 io_out[22]
*123 io_out[23]
*124 io_out[24]
*125 io_out[25]
*126 io_out[26]
*127 io_out[27]
*128 io_out[28]
*129 io_out[29]
*130 io_out[2]
*131 io_out[30]
*132 io_out[31]
*133 io_out[32]
*134 io_out[33]
*135 io_out[34]
*136 io_out[35]
*137 io_out[36]
*138 io_out[37]
*139 io_out[3]
*140 io_out[4]
*141 io_out[5]
*142 io_out[6]
*143 io_out[7]
*144 io_out[8]
*145 io_out[9]
*146 la_data_in[0]
*147 la_data_in[100]
*148 la_data_in[101]
*149 la_data_in[102]
*150 la_data_in[103]
*151 la_data_in[104]
*152 la_data_in[105]
*153 la_data_in[106]
*154 la_data_in[107]
*155 la_data_in[108]
*156 la_data_in[109]
*157 la_data_in[10]
*158 la_data_in[110]
*159 la_data_in[111]
*160 la_data_in[112]
*161 la_data_in[113]
*162 la_data_in[114]
*163 la_data_in[115]
*164 la_data_in[116]
*165 la_data_in[117]
*166 la_data_in[118]
*167 la_data_in[119]
*168 la_data_in[11]
*169 la_data_in[120]
*170 la_data_in[121]
*171 la_data_in[122]
*172 la_data_in[123]
*173 la_data_in[124]
*174 la_data_in[125]
*175 la_data_in[126]
*176 la_data_in[127]
*177 la_data_in[12]
*178 la_data_in[13]
*179 la_data_in[14]
*180 la_data_in[15]
*181 la_data_in[16]
*182 la_data_in[17]
*183 la_data_in[18]
*184 la_data_in[19]
*185 la_data_in[1]
*186 la_data_in[20]
*187 la_data_in[21]
*188 la_data_in[22]
*189 la_data_in[23]
*190 la_data_in[24]
*191 la_data_in[25]
*192 la_data_in[26]
*193 la_data_in[27]
*194 la_data_in[28]
*195 la_data_in[29]
*196 la_data_in[2]
*197 la_data_in[30]
*198 la_data_in[31]
*199 la_data_in[32]
*200 la_data_in[33]
*201 la_data_in[34]
*202 la_data_in[35]
*203 la_data_in[36]
*204 la_data_in[37]
*205 la_data_in[38]
*206 la_data_in[39]
*207 la_data_in[3]
*208 la_data_in[40]
*209 la_data_in[41]
*210 la_data_in[42]
*211 la_data_in[43]
*212 la_data_in[44]
*213 la_data_in[45]
*214 la_data_in[46]
*215 la_data_in[47]
*216 la_data_in[48]
*217 la_data_in[49]
*218 la_data_in[4]
*219 la_data_in[50]
*220 la_data_in[51]
*221 la_data_in[52]
*222 la_data_in[53]
*223 la_data_in[54]
*224 la_data_in[55]
*225 la_data_in[56]
*226 la_data_in[57]
*227 la_data_in[58]
*228 la_data_in[59]
*229 la_data_in[5]
*230 la_data_in[60]
*231 la_data_in[61]
*232 la_data_in[62]
*233 la_data_in[63]
*234 la_data_in[64]
*235 la_data_in[65]
*236 la_data_in[66]
*237 la_data_in[67]
*238 la_data_in[68]
*239 la_data_in[69]
*240 la_data_in[6]
*241 la_data_in[70]
*242 la_data_in[71]
*243 la_data_in[72]
*244 la_data_in[73]
*245 la_data_in[74]
*246 la_data_in[75]
*247 la_data_in[76]
*248 la_data_in[77]
*249 la_data_in[78]
*250 la_data_in[79]
*251 la_data_in[7]
*252 la_data_in[80]
*253 la_data_in[81]
*254 la_data_in[82]
*255 la_data_in[83]
*256 la_data_in[84]
*257 la_data_in[85]
*258 la_data_in[86]
*259 la_data_in[87]
*260 la_data_in[88]
*261 la_data_in[89]
*262 la_data_in[8]
*263 la_data_in[90]
*264 la_data_in[91]
*265 la_data_in[92]
*266 la_data_in[93]
*267 la_data_in[94]
*268 la_data_in[95]
*269 la_data_in[96]
*270 la_data_in[97]
*271 la_data_in[98]
*272 la_data_in[99]
*273 la_data_in[9]
*274 la_data_out[0]
*275 la_data_out[100]
*276 la_data_out[101]
*277 la_data_out[102]
*278 la_data_out[103]
*279 la_data_out[104]
*280 la_data_out[105]
*281 la_data_out[106]
*282 la_data_out[107]
*283 la_data_out[108]
*284 la_data_out[109]
*285 la_data_out[10]
*286 la_data_out[110]
*287 la_data_out[111]
*288 la_data_out[112]
*289 la_data_out[113]
*290 la_data_out[114]
*291 la_data_out[115]
*292 la_data_out[116]
*293 la_data_out[117]
*294 la_data_out[118]
*295 la_data_out[119]
*296 la_data_out[11]
*297 la_data_out[120]
*298 la_data_out[121]
*299 la_data_out[122]
*300 la_data_out[123]
*301 la_data_out[124]
*302 la_data_out[125]
*303 la_data_out[126]
*304 la_data_out[127]
*305 la_data_out[12]
*306 la_data_out[13]
*307 la_data_out[14]
*308 la_data_out[15]
*309 la_data_out[16]
*310 la_data_out[17]
*311 la_data_out[18]
*312 la_data_out[19]
*313 la_data_out[1]
*314 la_data_out[20]
*315 la_data_out[21]
*316 la_data_out[22]
*317 la_data_out[23]
*318 la_data_out[24]
*319 la_data_out[25]
*320 la_data_out[26]
*321 la_data_out[27]
*322 la_data_out[28]
*323 la_data_out[29]
*324 la_data_out[2]
*325 la_data_out[30]
*326 la_data_out[31]
*327 la_data_out[32]
*328 la_data_out[33]
*329 la_data_out[34]
*330 la_data_out[35]
*331 la_data_out[36]
*332 la_data_out[37]
*333 la_data_out[38]
*334 la_data_out[39]
*335 la_data_out[3]
*336 la_data_out[40]
*337 la_data_out[41]
*338 la_data_out[42]
*339 la_data_out[43]
*340 la_data_out[44]
*341 la_data_out[45]
*342 la_data_out[46]
*343 la_data_out[47]
*344 la_data_out[48]
*345 la_data_out[49]
*346 la_data_out[4]
*347 la_data_out[50]
*348 la_data_out[51]
*349 la_data_out[52]
*350 la_data_out[53]
*351 la_data_out[54]
*352 la_data_out[55]
*353 la_data_out[56]
*354 la_data_out[57]
*355 la_data_out[58]
*356 la_data_out[59]
*357 la_data_out[5]
*358 la_data_out[60]
*359 la_data_out[61]
*360 la_data_out[62]
*361 la_data_out[63]
*362 la_data_out[64]
*363 la_data_out[65]
*364 la_data_out[66]
*365 la_data_out[67]
*366 la_data_out[68]
*367 la_data_out[69]
*368 la_data_out[6]
*369 la_data_out[70]
*370 la_data_out[71]
*371 la_data_out[72]
*372 la_data_out[73]
*373 la_data_out[74]
*374 la_data_out[75]
*375 la_data_out[76]
*376 la_data_out[77]
*377 la_data_out[78]
*378 la_data_out[79]
*379 la_data_out[7]
*380 la_data_out[80]
*381 la_data_out[81]
*382 la_data_out[82]
*383 la_data_out[83]
*384 la_data_out[84]
*385 la_data_out[85]
*386 la_data_out[86]
*387 la_data_out[87]
*388 la_data_out[88]
*389 la_data_out[89]
*390 la_data_out[8]
*391 la_data_out[90]
*392 la_data_out[91]
*393 la_data_out[92]
*394 la_data_out[93]
*395 la_data_out[94]
*396 la_data_out[95]
*397 la_data_out[96]
*398 la_data_out[97]
*399 la_data_out[98]
*400 la_data_out[99]
*401 la_data_out[9]
*402 la_oenb[0]
*403 la_oenb[100]
*404 la_oenb[101]
*405 la_oenb[102]
*406 la_oenb[103]
*407 la_oenb[104]
*408 la_oenb[105]
*409 la_oenb[106]
*410 la_oenb[107]
*411 la_oenb[108]
*412 la_oenb[109]
*413 la_oenb[10]
*414 la_oenb[110]
*415 la_oenb[111]
*416 la_oenb[112]
*417 la_oenb[113]
*418 la_oenb[114]
*419 la_oenb[115]
*420 la_oenb[116]
*421 la_oenb[117]
*422 la_oenb[118]
*423 la_oenb[119]
*424 la_oenb[11]
*425 la_oenb[120]
*426 la_oenb[121]
*427 la_oenb[122]
*428 la_oenb[123]
*429 la_oenb[124]
*430 la_oenb[125]
*431 la_oenb[126]
*432 la_oenb[127]
*433 la_oenb[12]
*434 la_oenb[13]
*435 la_oenb[14]
*436 la_oenb[15]
*437 la_oenb[16]
*438 la_oenb[17]
*439 la_oenb[18]
*440 la_oenb[19]
*441 la_oenb[1]
*442 la_oenb[20]
*443 la_oenb[21]
*444 la_oenb[22]
*445 la_oenb[23]
*446 la_oenb[24]
*447 la_oenb[25]
*448 la_oenb[26]
*449 la_oenb[27]
*450 la_oenb[28]
*451 la_oenb[29]
*452 la_oenb[2]
*453 la_oenb[30]
*454 la_oenb[31]
*455 la_oenb[32]
*456 la_oenb[33]
*457 la_oenb[34]
*458 la_oenb[35]
*459 la_oenb[36]
*460 la_oenb[37]
*461 la_oenb[38]
*462 la_oenb[39]
*463 la_oenb[3]
*464 la_oenb[40]
*465 la_oenb[41]
*466 la_oenb[42]
*467 la_oenb[43]
*468 la_oenb[44]
*469 la_oenb[45]
*470 la_oenb[46]
*471 la_oenb[47]
*472 la_oenb[48]
*473 la_oenb[49]
*474 la_oenb[4]
*475 la_oenb[50]
*476 la_oenb[51]
*477 la_oenb[52]
*478 la_oenb[53]
*479 la_oenb[54]
*480 la_oenb[55]
*481 la_oenb[56]
*482 la_oenb[57]
*483 la_oenb[58]
*484 la_oenb[59]
*485 la_oenb[5]
*486 la_oenb[60]
*487 la_oenb[61]
*488 la_oenb[62]
*489 la_oenb[63]
*490 la_oenb[64]
*491 la_oenb[65]
*492 la_oenb[66]
*493 la_oenb[67]
*494 la_oenb[68]
*495 la_oenb[69]
*496 la_oenb[6]
*497 la_oenb[70]
*498 la_oenb[71]
*499 la_oenb[72]
*500 la_oenb[73]
*501 la_oenb[74]
*502 la_oenb[75]
*503 la_oenb[76]
*504 la_oenb[77]
*505 la_oenb[78]
*506 la_oenb[79]
*507 la_oenb[7]
*508 la_oenb[80]
*509 la_oenb[81]
*510 la_oenb[82]
*511 la_oenb[83]
*512 la_oenb[84]
*513 la_oenb[85]
*514 la_oenb[86]
*515 la_oenb[87]
*516 la_oenb[88]
*517 la_oenb[89]
*518 la_oenb[8]
*519 la_oenb[90]
*520 la_oenb[91]
*521 la_oenb[92]
*522 la_oenb[93]
*523 la_oenb[94]
*524 la_oenb[95]
*525 la_oenb[96]
*526 la_oenb[97]
*527 la_oenb[98]
*528 la_oenb[99]
*529 la_oenb[9]
*530 pwm_fall_out
*531 pwm_rise_out
*532 user_clock2
*533 user_irq[0]
*534 user_irq[1]
*535 user_irq[2]
*544 wb_clk_i
*545 wb_rst_i
*546 wbs_ack_o
*547 wbs_adr_i[0]
*548 wbs_adr_i[10]
*549 wbs_adr_i[11]
*550 wbs_adr_i[12]
*551 wbs_adr_i[13]
*552 wbs_adr_i[14]
*553 wbs_adr_i[15]
*554 wbs_adr_i[16]
*555 wbs_adr_i[17]
*556 wbs_adr_i[18]
*557 wbs_adr_i[19]
*558 wbs_adr_i[1]
*559 wbs_adr_i[20]
*560 wbs_adr_i[21]
*561 wbs_adr_i[22]
*562 wbs_adr_i[23]
*563 wbs_adr_i[24]
*564 wbs_adr_i[25]
*565 wbs_adr_i[26]
*566 wbs_adr_i[27]
*567 wbs_adr_i[28]
*568 wbs_adr_i[29]
*569 wbs_adr_i[2]
*570 wbs_adr_i[30]
*571 wbs_adr_i[31]
*572 wbs_adr_i[3]
*573 wbs_adr_i[4]
*574 wbs_adr_i[5]
*575 wbs_adr_i[6]
*576 wbs_adr_i[7]
*577 wbs_adr_i[8]
*578 wbs_adr_i[9]
*579 wbs_cyc_i
*580 wbs_dat_i[0]
*581 wbs_dat_i[10]
*582 wbs_dat_i[11]
*583 wbs_dat_i[12]
*584 wbs_dat_i[13]
*585 wbs_dat_i[14]
*586 wbs_dat_i[15]
*587 wbs_dat_i[16]
*588 wbs_dat_i[17]
*589 wbs_dat_i[18]
*590 wbs_dat_i[19]
*591 wbs_dat_i[1]
*592 wbs_dat_i[20]
*593 wbs_dat_i[21]
*594 wbs_dat_i[22]
*595 wbs_dat_i[23]
*596 wbs_dat_i[24]
*597 wbs_dat_i[25]
*598 wbs_dat_i[26]
*599 wbs_dat_i[27]
*600 wbs_dat_i[28]
*601 wbs_dat_i[29]
*602 wbs_dat_i[2]
*603 wbs_dat_i[30]
*604 wbs_dat_i[31]
*605 wbs_dat_i[3]
*606 wbs_dat_i[4]
*607 wbs_dat_i[5]
*608 wbs_dat_i[6]
*609 wbs_dat_i[7]
*610 wbs_dat_i[8]
*611 wbs_dat_i[9]
*612 wbs_dat_o[0]
*613 wbs_dat_o[10]
*614 wbs_dat_o[11]
*615 wbs_dat_o[12]
*616 wbs_dat_o[13]
*617 wbs_dat_o[14]
*618 wbs_dat_o[15]
*619 wbs_dat_o[16]
*620 wbs_dat_o[17]
*621 wbs_dat_o[18]
*622 wbs_dat_o[19]
*623 wbs_dat_o[1]
*624 wbs_dat_o[20]
*625 wbs_dat_o[21]
*626 wbs_dat_o[22]
*627 wbs_dat_o[23]
*628 wbs_dat_o[24]
*629 wbs_dat_o[25]
*630 wbs_dat_o[26]
*631 wbs_dat_o[27]
*632 wbs_dat_o[28]
*633 wbs_dat_o[29]
*634 wbs_dat_o[2]
*635 wbs_dat_o[30]
*636 wbs_dat_o[31]
*637 wbs_dat_o[3]
*638 wbs_dat_o[4]
*639 wbs_dat_o[5]
*640 wbs_dat_o[6]
*641 wbs_dat_o[7]
*642 wbs_dat_o[8]
*643 wbs_dat_o[9]
*644 wbs_sel_i[0]
*645 wbs_sel_i[1]
*646 wbs_sel_i[2]
*647 wbs_sel_i[3]
*648 wbs_stb_i
*649 wbs_we_i
*650 _000_
*651 _001_
*652 _002_
*653 _003_
*654 _004_
*655 _005_
*656 _006_
*657 _007_
*658 _008_
*659 _009_
*660 _010_
*661 _011_
*662 _012_
*663 _013_
*664 _014_
*665 _015_
*666 _016_
*667 _017_
*668 _018_
*669 _019_
*670 _020_
*671 _021_
*672 _022_
*673 _023_
*674 _024_
*675 _025_
*676 _026_
*677 _027_
*678 _028_
*679 _029_
*680 _030_
*681 _031_
*682 _032_
*683 _033_
*684 _034_
*685 _035_
*686 _036_
*687 _037_
*688 _038_
*689 _039_
*690 _040_
*691 _041_
*692 _042_
*693 _043_
*694 _044_
*695 _045_
*696 _046_
*697 _047_
*698 _048_
*699 _049_
*700 _050_
*701 _051_
*702 _052_
*703 _053_
*704 _054_
*705 _055_
*706 _056_
*707 _057_
*708 _058_
*709 _059_
*710 _060_
*711 _061_
*712 _062_
*713 _063_
*714 _064_
*715 _065_
*716 _066_
*717 _067_
*718 _068_
*719 _069_
*720 _070_
*721 _071_
*722 _072_
*723 _073_
*724 _074_
*725 _075_
*726 _076_
*727 _077_
*728 _078_
*729 _079_
*730 _080_
*731 _081_
*732 _082_
*733 _083_
*734 _084_
*735 _085_
*736 _086_
*737 _087_
*738 _088_
*739 _089_
*740 _090_
*741 _091_
*742 _092_
*743 _093_
*744 _094_
*745 _095_
*746 net1
*747 net10
*748 net100
*749 net101
*750 net102
*751 net103
*752 net104
*753 net105
*754 net106
*755 net107
*756 net108
*757 net109
*758 net11
*759 net110
*760 net111
*761 net112
*762 net113
*763 net114
*764 net115
*765 net116
*766 net117
*767 net118
*768 net119
*769 net12
*770 net120
*771 net121
*772 net122
*773 net123
*774 net124
*775 net125
*776 net126
*777 net127
*778 net128
*779 net129
*780 net13
*781 net130
*782 net131
*783 net132
*784 net133
*785 net134
*786 net135
*787 net136
*788 net137
*789 net138
*790 net139
*791 net14
*792 net140
*793 net141
*794 net142
*795 net143
*796 net144
*797 net145
*798 net146
*799 net147
*800 net148
*801 net149
*802 net15
*803 net150
*804 net151
*805 net152
*806 net153
*807 net154
*808 net155
*809 net156
*810 net157
*811 net158
*812 net159
*813 net16
*814 net160
*815 net161
*816 net162
*817 net163
*818 net164
*819 net165
*820 net166
*821 net167
*822 net168
*823 net169
*824 net17
*825 net170
*826 net171
*827 net172
*828 net173
*829 net174
*830 net175
*831 net176
*832 net177
*833 net178
*834 net179
*835 net18
*836 net180
*837 net181
*838 net182
*839 net183
*840 net184
*841 net185
*842 net186
*843 net187
*844 net188
*845 net189
*846 net19
*847 net190
*848 net191
*849 net192
*850 net193
*851 net194
*852 net195
*853 net196
*854 net197
*855 net198
*856 net199
*857 net2
*858 net20
*859 net200
*860 net201
*861 net202
*862 net203
*863 net204
*864 net205
*865 net206
*866 net207
*867 net208
*868 net209
*869 net21
*870 net210
*871 net211
*872 net212
*873 net213
*874 net214
*875 net215
*876 net216
*877 net217
*878 net218
*879 net219
*880 net22
*881 net220
*882 net221
*883 net222
*884 net223
*885 net224
*886 net225
*887 net226
*888 net227
*889 net228
*890 net229
*891 net23
*892 net230
*893 net231
*894 net232
*895 net233
*896 net234
*897 net235
*898 net236
*899 net237
*900 net238
*901 net239
*902 net24
*903 net240
*904 net241
*905 net242
*906 net243
*907 net244
*908 net245
*909 net246
*910 net247
*911 net248
*912 net249
*913 net25
*914 net250
*915 net251
*916 net252
*917 net253
*918 net254
*919 net255
*920 net256
*921 net257
*922 net258
*923 net259
*924 net26
*925 net260
*926 net261
*927 net262
*928 net263
*929 net264
*930 net265
*931 net266
*932 net267
*933 net268
*934 net269
*935 net27
*936 net270
*937 net271
*938 net272
*939 net273
*940 net274
*941 net275
*942 net276
*943 net277
*944 net278
*945 net279
*946 net28
*947 net280
*948 net281
*949 net282
*950 net283
*951 net284
*952 net285
*953 net286
*954 net287
*955 net288
*956 net289
*957 net29
*958 net290
*959 net291
*960 net292
*961 net293
*962 net294
*963 net295
*964 net296
*965 net297
*966 net298
*967 net299
*968 net3
*969 net30
*970 net300
*971 net31
*972 net32
*973 net33
*974 net34
*975 net35
*976 net36
*977 net37
*978 net38
*979 net39
*980 net4
*981 net40
*982 net41
*983 net42
*984 net43
*985 net44
*986 net45
*987 net46
*988 net47
*989 net48
*990 net49
*991 net5
*992 net50
*993 net51
*994 net52
*995 net53
*996 net54
*997 net55
*998 net56
*999 net57
*1000 net58
*1001 net59
*1002 net6
*1003 net60
*1004 net61
*1005 net62
*1006 net63
*1007 net64
*1008 net65
*1009 net66
*1010 net67
*1011 net68
*1012 net69
*1013 net7
*1014 net70
*1015 net71
*1016 net72
*1017 net73
*1018 net74
*1019 net75
*1020 net76
*1021 net77
*1022 net78
*1023 net79
*1024 net8
*1025 net80
*1026 net81
*1027 net82
*1028 net83
*1029 net84
*1030 net85
*1031 net86
*1032 net87
*1033 net88
*1034 net89
*1035 net9
*1036 net90
*1037 net91
*1038 net92
*1039 net93
*1040 net94
*1041 net95
*1042 net96
*1043 net97
*1044 net98
*1045 net99
*1046 pwm_counter0\.count\[0\]
*1047 pwm_counter0\.count\[1\]
*1048 pwm_counter0\.count\[2\]
*1049 pwm_counter0\.count\[3\]
*1050 pwm_counter0\.count\[4\]
*1051 pwm_counter0\.count\[5\]
*1052 pwm_counter0\.count\[6\]
*1053 pwm_counter0\.count\[7\]
*1054 pwm_fall_detector\.pos\[0\]
*1055 pwm_fall_detector\.pos\[1\]
*1056 pwm_fall_detector\.pos\[2\]
*1057 pwm_fall_detector\.pos\[3\]
*1058 pwm_fall_detector\.pos\[4\]
*1059 pwm_fall_detector\.pos\[5\]
*1060 pwm_fall_detector\.pos\[6\]
*1061 pwm_fall_detector\.pos\[7\]
*1062 pwm_rise_detector\.pos\[0\]
*1063 pwm_rise_detector\.pos\[1\]
*1064 pwm_rise_detector\.pos\[2\]
*1065 pwm_rise_detector\.pos\[3\]
*1066 pwm_rise_detector\.pos\[4\]
*1067 pwm_rise_detector\.pos\[5\]
*1068 pwm_rise_detector\.pos\[6\]
*1069 pwm_rise_detector\.pos\[7\]
*1070 ANTENNA_1
*1071 ANTENNA__103__A
*1072 ANTENNA__124__B
*1073 ANTENNA__129__A
*1074 ANTENNA__131__A
*1075 ANTENNA__133__B1
*1076 ANTENNA__137__A
*1077 ANTENNA__139__A
*1078 ANTENNA__141__B1
*1079 ANTENNA_input10_A
*1080 ANTENNA_input11_A
*1081 ANTENNA_input12_A
*1082 ANTENNA_input13_A
*1083 ANTENNA_input14_A
*1084 ANTENNA_input15_A
*1085 ANTENNA_input16_A
*1086 ANTENNA_input17_A
*1087 ANTENNA_input18_A
*1088 ANTENNA_input19_A
*1089 ANTENNA_input1_A
*1090 ANTENNA_input20_A
*1091 ANTENNA_input21_A
*1092 ANTENNA_input22_A
*1093 ANTENNA_input23_A
*1094 ANTENNA_input24_A
*1095 ANTENNA_input25_A
*1096 ANTENNA_input26_A
*1097 ANTENNA_input27_A
*1098 ANTENNA_input28_A
*1099 ANTENNA_input29_A
*1100 ANTENNA_input2_A
*1101 ANTENNA_input30_A
*1102 ANTENNA_input31_A
*1103 ANTENNA_input32_A
*1104 ANTENNA_input33_A
*1105 ANTENNA_input34_A
*1106 ANTENNA_input35_A
*1107 ANTENNA_input36_A
*1108 ANTENNA_input37_A
*1109 ANTENNA_input38_A
*1110 ANTENNA_input39_A
*1111 ANTENNA_input3_A
*1112 ANTENNA_input40_A
*1113 ANTENNA_input41_A
*1114 ANTENNA_input42_A
*1115 ANTENNA_input43_A
*1116 ANTENNA_input44_A
*1117 ANTENNA_input45_A
*1118 ANTENNA_input4_A
*1119 ANTENNA_input5_A
*1120 ANTENNA_input6_A
*1121 ANTENNA_input7_A
*1122 ANTENNA_input8_A
*1123 ANTENNA_input9_A
*1124 FILLER_0_0_1005
*1125 FILLER_0_0_1009
*1126 FILLER_0_0_101
*1127 FILLER_0_0_1017
*1128 FILLER_0_0_1025
*1129 FILLER_0_0_1033
*1130 FILLER_0_0_1037
*1131 FILLER_0_0_1045
*1132 FILLER_0_0_1053
*1133 FILLER_0_0_1061
*1134 FILLER_0_0_1065
*1135 FILLER_0_0_1073
*1136 FILLER_0_0_1081
*1137 FILLER_0_0_1089
*1138 FILLER_0_0_109
*1139 FILLER_0_0_1093
*1140 FILLER_0_0_11
*1141 FILLER_0_0_1101
*1142 FILLER_0_0_1109
*1143 FILLER_0_0_1117
*1144 FILLER_0_0_1121
*1145 FILLER_0_0_1129
*1146 FILLER_0_0_113
*1147 FILLER_0_0_1137
*1148 FILLER_0_0_1145
*1149 FILLER_0_0_1149
*1150 FILLER_0_0_1157
*1151 FILLER_0_0_1165
*1152 FILLER_0_0_1173
*1153 FILLER_0_0_1177
*1154 FILLER_0_0_1185
*1155 FILLER_0_0_1193
*1156 FILLER_0_0_1201
*1157 FILLER_0_0_1205
*1158 FILLER_0_0_121
*1159 FILLER_0_0_1213
*1160 FILLER_0_0_1221
*1161 FILLER_0_0_1229
*1162 FILLER_0_0_1233
*1163 FILLER_0_0_1241
*1164 FILLER_0_0_1249
*1165 FILLER_0_0_1257
*1166 FILLER_0_0_1261
*1167 FILLER_0_0_1269
*1168 FILLER_0_0_1277
*1169 FILLER_0_0_1285
*1170 FILLER_0_0_1289
*1171 FILLER_0_0_129
*1172 FILLER_0_0_1297
*1173 FILLER_0_0_1305
*1174 FILLER_0_0_1313
*1175 FILLER_0_0_1317
*1176 FILLER_0_0_1325
*1177 FILLER_0_0_1333
*1178 FILLER_0_0_1341
*1179 FILLER_0_0_1345
*1180 FILLER_0_0_1353
*1181 FILLER_0_0_1361
*1182 FILLER_0_0_1369
*1183 FILLER_0_0_137
*1184 FILLER_0_0_1373
*1185 FILLER_0_0_1381
*1186 FILLER_0_0_1389
*1187 FILLER_0_0_1397
*1188 FILLER_0_0_1401
*1189 FILLER_0_0_1409
*1190 FILLER_0_0_141
*1191 FILLER_0_0_1417
*1192 FILLER_0_0_1425
*1193 FILLER_0_0_1429
*1194 FILLER_0_0_1437
*1195 FILLER_0_0_1445
*1196 FILLER_0_0_1453
*1197 FILLER_0_0_1457
*1198 FILLER_0_0_1465
*1199 FILLER_0_0_1473
*1200 FILLER_0_0_1481
*1201 FILLER_0_0_1485
*1202 FILLER_0_0_149
*1203 FILLER_0_0_1493
*1204 FILLER_0_0_1501
*1205 FILLER_0_0_1509
*1206 FILLER_0_0_1513
*1207 FILLER_0_0_1521
*1208 FILLER_0_0_1529
*1209 FILLER_0_0_1537
*1210 FILLER_0_0_1541
*1211 FILLER_0_0_1549
*1212 FILLER_0_0_1557
*1213 FILLER_0_0_1565
*1214 FILLER_0_0_1569
*1215 FILLER_0_0_157
*1216 FILLER_0_0_1577
*1217 FILLER_0_0_1585
*1218 FILLER_0_0_1593
*1219 FILLER_0_0_1597
*1220 FILLER_0_0_1605
*1221 FILLER_0_0_1613
*1222 FILLER_0_0_1621
*1223 FILLER_0_0_1625
*1224 FILLER_0_0_1633
*1225 FILLER_0_0_1641
*1226 FILLER_0_0_1649
*1227 FILLER_0_0_165
*1228 FILLER_0_0_1653
*1229 FILLER_0_0_1661
*1230 FILLER_0_0_1669
*1231 FILLER_0_0_1677
*1232 FILLER_0_0_1681
*1233 FILLER_0_0_1689
*1234 FILLER_0_0_169
*1235 FILLER_0_0_1697
*1236 FILLER_0_0_1705
*1237 FILLER_0_0_1709
*1238 FILLER_0_0_1717
*1239 FILLER_0_0_1725
*1240 FILLER_0_0_1733
*1241 FILLER_0_0_1737
*1242 FILLER_0_0_1745
*1243 FILLER_0_0_1753
*1244 FILLER_0_0_1761
*1245 FILLER_0_0_1765
*1246 FILLER_0_0_177
*1247 FILLER_0_0_1773
*1248 FILLER_0_0_1781
*1249 FILLER_0_0_1789
*1250 FILLER_0_0_1793
*1251 FILLER_0_0_1801
*1252 FILLER_0_0_1809
*1253 FILLER_0_0_1817
*1254 FILLER_0_0_1821
*1255 FILLER_0_0_1829
*1256 FILLER_0_0_1837
*1257 FILLER_0_0_1845
*1258 FILLER_0_0_1849
*1259 FILLER_0_0_185
*1260 FILLER_0_0_1857
*1261 FILLER_0_0_1865
*1262 FILLER_0_0_1873
*1263 FILLER_0_0_1877
*1264 FILLER_0_0_1885
*1265 FILLER_0_0_1893
*1266 FILLER_0_0_19
*1267 FILLER_0_0_1901
*1268 FILLER_0_0_1905
*1269 FILLER_0_0_1913
*1270 FILLER_0_0_1921
*1271 FILLER_0_0_193
*1272 FILLER_0_0_197
*1273 FILLER_0_0_205
*1274 FILLER_0_0_213
*1275 FILLER_0_0_221
*1276 FILLER_0_0_225
*1277 FILLER_0_0_233
*1278 FILLER_0_0_241
*1279 FILLER_0_0_249
*1280 FILLER_0_0_253
*1281 FILLER_0_0_261
*1282 FILLER_0_0_269
*1283 FILLER_0_0_27
*1284 FILLER_0_0_277
*1285 FILLER_0_0_281
*1286 FILLER_0_0_289
*1287 FILLER_0_0_29
*1288 FILLER_0_0_297
*1289 FILLER_0_0_3
*1290 FILLER_0_0_305
*1291 FILLER_0_0_309
*1292 FILLER_0_0_317
*1293 FILLER_0_0_325
*1294 FILLER_0_0_333
*1295 FILLER_0_0_337
*1296 FILLER_0_0_345
*1297 FILLER_0_0_353
*1298 FILLER_0_0_361
*1299 FILLER_0_0_365
*1300 FILLER_0_0_37
*1301 FILLER_0_0_373
*1302 FILLER_0_0_381
*1303 FILLER_0_0_389
*1304 FILLER_0_0_393
*1305 FILLER_0_0_401
*1306 FILLER_0_0_409
*1307 FILLER_0_0_417
*1308 FILLER_0_0_421
*1309 FILLER_0_0_429
*1310 FILLER_0_0_437
*1311 FILLER_0_0_445
*1312 FILLER_0_0_449
*1313 FILLER_0_0_45
*1314 FILLER_0_0_457
*1315 FILLER_0_0_465
*1316 FILLER_0_0_473
*1317 FILLER_0_0_477
*1318 FILLER_0_0_485
*1319 FILLER_0_0_493
*1320 FILLER_0_0_501
*1321 FILLER_0_0_505
*1322 FILLER_0_0_513
*1323 FILLER_0_0_521
*1324 FILLER_0_0_529
*1325 FILLER_0_0_53
*1326 FILLER_0_0_533
*1327 FILLER_0_0_541
*1328 FILLER_0_0_549
*1329 FILLER_0_0_557
*1330 FILLER_0_0_561
*1331 FILLER_0_0_569
*1332 FILLER_0_0_57
*1333 FILLER_0_0_577
*1334 FILLER_0_0_585
*1335 FILLER_0_0_589
*1336 FILLER_0_0_597
*1337 FILLER_0_0_605
*1338 FILLER_0_0_613
*1339 FILLER_0_0_617
*1340 FILLER_0_0_625
*1341 FILLER_0_0_633
*1342 FILLER_0_0_641
*1343 FILLER_0_0_645
*1344 FILLER_0_0_65
*1345 FILLER_0_0_653
*1346 FILLER_0_0_661
*1347 FILLER_0_0_669
*1348 FILLER_0_0_673
*1349 FILLER_0_0_681
*1350 FILLER_0_0_689
*1351 FILLER_0_0_697
*1352 FILLER_0_0_701
*1353 FILLER_0_0_709
*1354 FILLER_0_0_717
*1355 FILLER_0_0_725
*1356 FILLER_0_0_729
*1357 FILLER_0_0_73
*1358 FILLER_0_0_737
*1359 FILLER_0_0_745
*1360 FILLER_0_0_753
*1361 FILLER_0_0_757
*1362 FILLER_0_0_765
*1363 FILLER_0_0_773
*1364 FILLER_0_0_781
*1365 FILLER_0_0_785
*1366 FILLER_0_0_793
*1367 FILLER_0_0_801
*1368 FILLER_0_0_809
*1369 FILLER_0_0_81
*1370 FILLER_0_0_813
*1371 FILLER_0_0_821
*1372 FILLER_0_0_829
*1373 FILLER_0_0_837
*1374 FILLER_0_0_841
*1375 FILLER_0_0_849
*1376 FILLER_0_0_85
*1377 FILLER_0_0_857
*1378 FILLER_0_0_865
*1379 FILLER_0_0_869
*1380 FILLER_0_0_877
*1381 FILLER_0_0_885
*1382 FILLER_0_0_893
*1383 FILLER_0_0_897
*1384 FILLER_0_0_905
*1385 FILLER_0_0_913
*1386 FILLER_0_0_921
*1387 FILLER_0_0_925
*1388 FILLER_0_0_93
*1389 FILLER_0_0_933
*1390 FILLER_0_0_941
*1391 FILLER_0_0_949
*1392 FILLER_0_0_953
*1393 FILLER_0_0_961
*1394 FILLER_0_0_969
*1395 FILLER_0_0_977
*1396 FILLER_0_0_981
*1397 FILLER_0_0_989
*1398 FILLER_0_0_997
*1399 FILLER_0_100_1005
*1400 FILLER_0_100_101
*1401 FILLER_0_100_1013
*1402 FILLER_0_100_1021
*1403 FILLER_0_100_1029
*1404 FILLER_0_100_1035
*1405 FILLER_0_100_1037
*1406 FILLER_0_100_1045
*1407 FILLER_0_100_1053
*1408 FILLER_0_100_1061
*1409 FILLER_0_100_1069
*1410 FILLER_0_100_1077
*1411 FILLER_0_100_1085
*1412 FILLER_0_100_109
*1413 FILLER_0_100_1091
*1414 FILLER_0_100_1093
*1415 FILLER_0_100_1101
*1416 FILLER_0_100_1109
*1417 FILLER_0_100_1117
*1418 FILLER_0_100_1125
*1419 FILLER_0_100_1133
*1420 FILLER_0_100_1141
*1421 FILLER_0_100_1147
*1422 FILLER_0_100_1149
*1423 FILLER_0_100_1157
*1424 FILLER_0_100_1165
*1425 FILLER_0_100_117
*1426 FILLER_0_100_1173
*1427 FILLER_0_100_1181
*1428 FILLER_0_100_1189
*1429 FILLER_0_100_1197
*1430 FILLER_0_100_12
*1431 FILLER_0_100_1203
*1432 FILLER_0_100_1205
*1433 FILLER_0_100_1213
*1434 FILLER_0_100_1221
*1435 FILLER_0_100_1229
*1436 FILLER_0_100_1237
*1437 FILLER_0_100_1245
*1438 FILLER_0_100_125
*1439 FILLER_0_100_1253
*1440 FILLER_0_100_1259
*1441 FILLER_0_100_1261
*1442 FILLER_0_100_1269
*1443 FILLER_0_100_1277
*1444 FILLER_0_100_1285
*1445 FILLER_0_100_1293
*1446 FILLER_0_100_1301
*1447 FILLER_0_100_1309
*1448 FILLER_0_100_1315
*1449 FILLER_0_100_1317
*1450 FILLER_0_100_1325
*1451 FILLER_0_100_133
*1452 FILLER_0_100_1333
*1453 FILLER_0_100_1341
*1454 FILLER_0_100_1349
*1455 FILLER_0_100_1357
*1456 FILLER_0_100_1365
*1457 FILLER_0_100_1371
*1458 FILLER_0_100_1373
*1459 FILLER_0_100_1381
*1460 FILLER_0_100_1389
*1461 FILLER_0_100_139
*1462 FILLER_0_100_1397
*1463 FILLER_0_100_1405
*1464 FILLER_0_100_141
*1465 FILLER_0_100_1413
*1466 FILLER_0_100_1421
*1467 FILLER_0_100_1427
*1468 FILLER_0_100_1429
*1469 FILLER_0_100_1437
*1470 FILLER_0_100_1445
*1471 FILLER_0_100_1453
*1472 FILLER_0_100_1461
*1473 FILLER_0_100_1469
*1474 FILLER_0_100_1477
*1475 FILLER_0_100_1483
*1476 FILLER_0_100_1485
*1477 FILLER_0_100_149
*1478 FILLER_0_100_1493
*1479 FILLER_0_100_1501
*1480 FILLER_0_100_1509
*1481 FILLER_0_100_1517
*1482 FILLER_0_100_1525
*1483 FILLER_0_100_1533
*1484 FILLER_0_100_1539
*1485 FILLER_0_100_1541
*1486 FILLER_0_100_1549
*1487 FILLER_0_100_1557
*1488 FILLER_0_100_1565
*1489 FILLER_0_100_157
*1490 FILLER_0_100_1573
*1491 FILLER_0_100_1581
*1492 FILLER_0_100_1589
*1493 FILLER_0_100_1595
*1494 FILLER_0_100_1597
*1495 FILLER_0_100_1605
*1496 FILLER_0_100_1613
*1497 FILLER_0_100_1621
*1498 FILLER_0_100_1629
*1499 FILLER_0_100_1637
*1500 FILLER_0_100_1645
*1501 FILLER_0_100_165
*1502 FILLER_0_100_1651
*1503 FILLER_0_100_1653
*1504 FILLER_0_100_1661
*1505 FILLER_0_100_1669
*1506 FILLER_0_100_1677
*1507 FILLER_0_100_1685
*1508 FILLER_0_100_1693
*1509 FILLER_0_100_1701
*1510 FILLER_0_100_1707
*1511 FILLER_0_100_1709
*1512 FILLER_0_100_1717
*1513 FILLER_0_100_1725
*1514 FILLER_0_100_173
*1515 FILLER_0_100_1733
*1516 FILLER_0_100_1741
*1517 FILLER_0_100_1749
*1518 FILLER_0_100_1757
*1519 FILLER_0_100_1763
*1520 FILLER_0_100_1765
*1521 FILLER_0_100_1773
*1522 FILLER_0_100_1781
*1523 FILLER_0_100_1789
*1524 FILLER_0_100_1797
*1525 FILLER_0_100_1805
*1526 FILLER_0_100_181
*1527 FILLER_0_100_1813
*1528 FILLER_0_100_1819
*1529 FILLER_0_100_1821
*1530 FILLER_0_100_1829
*1531 FILLER_0_100_1837
*1532 FILLER_0_100_1845
*1533 FILLER_0_100_1853
*1534 FILLER_0_100_1861
*1535 FILLER_0_100_1869
*1536 FILLER_0_100_1875
*1537 FILLER_0_100_1877
*1538 FILLER_0_100_1885
*1539 FILLER_0_100_189
*1540 FILLER_0_100_1893
*1541 FILLER_0_100_1901
*1542 FILLER_0_100_1909
*1543 FILLER_0_100_1917
*1544 FILLER_0_100_1925
*1545 FILLER_0_100_195
*1546 FILLER_0_100_197
*1547 FILLER_0_100_20
*1548 FILLER_0_100_205
*1549 FILLER_0_100_213
*1550 FILLER_0_100_221
*1551 FILLER_0_100_229
*1552 FILLER_0_100_237
*1553 FILLER_0_100_245
*1554 FILLER_0_100_251
*1555 FILLER_0_100_253
*1556 FILLER_0_100_261
*1557 FILLER_0_100_269
*1558 FILLER_0_100_277
*1559 FILLER_0_100_285
*1560 FILLER_0_100_29
*1561 FILLER_0_100_293
*1562 FILLER_0_100_3
*1563 FILLER_0_100_301
*1564 FILLER_0_100_307
*1565 FILLER_0_100_309
*1566 FILLER_0_100_317
*1567 FILLER_0_100_325
*1568 FILLER_0_100_333
*1569 FILLER_0_100_341
*1570 FILLER_0_100_349
*1571 FILLER_0_100_357
*1572 FILLER_0_100_363
*1573 FILLER_0_100_365
*1574 FILLER_0_100_37
*1575 FILLER_0_100_373
*1576 FILLER_0_100_381
*1577 FILLER_0_100_389
*1578 FILLER_0_100_397
*1579 FILLER_0_100_405
*1580 FILLER_0_100_413
*1581 FILLER_0_100_419
*1582 FILLER_0_100_421
*1583 FILLER_0_100_429
*1584 FILLER_0_100_437
*1585 FILLER_0_100_445
*1586 FILLER_0_100_45
*1587 FILLER_0_100_453
*1588 FILLER_0_100_461
*1589 FILLER_0_100_469
*1590 FILLER_0_100_475
*1591 FILLER_0_100_477
*1592 FILLER_0_100_485
*1593 FILLER_0_100_493
*1594 FILLER_0_100_501
*1595 FILLER_0_100_509
*1596 FILLER_0_100_517
*1597 FILLER_0_100_525
*1598 FILLER_0_100_53
*1599 FILLER_0_100_531
*1600 FILLER_0_100_533
*1601 FILLER_0_100_541
*1602 FILLER_0_100_549
*1603 FILLER_0_100_557
*1604 FILLER_0_100_565
*1605 FILLER_0_100_573
*1606 FILLER_0_100_581
*1607 FILLER_0_100_587
*1608 FILLER_0_100_589
*1609 FILLER_0_100_597
*1610 FILLER_0_100_605
*1611 FILLER_0_100_61
*1612 FILLER_0_100_613
*1613 FILLER_0_100_621
*1614 FILLER_0_100_629
*1615 FILLER_0_100_637
*1616 FILLER_0_100_643
*1617 FILLER_0_100_645
*1618 FILLER_0_100_653
*1619 FILLER_0_100_661
*1620 FILLER_0_100_669
*1621 FILLER_0_100_677
*1622 FILLER_0_100_685
*1623 FILLER_0_100_69
*1624 FILLER_0_100_693
*1625 FILLER_0_100_699
*1626 FILLER_0_100_701