* NGSPICE file created from TOP_digital.ext - technology: sky130B

.subckt sky130_ef_sc_hd__decap_12 VGND VPWR VPB VNB
X0 VPWR VGND VPWR VPB sky130_fd_pr__pfet_01v8_hvt ad=0.226 pd=2.26 as=0 ps=0 w=0.87 l=4.73
X1 VGND VPWR VGND VNB sky130_fd_pr__nfet_01v8 ad=0.143 pd=1.62 as=0 ps=0 w=0.55 l=4.73
.ends

.subckt sky130_fd_sc_hd__decap_6 VGND VNB VPB VPWR
X0 VPWR VGND VPWR VPB sky130_fd_pr__pfet_01v8_hvt ad=0.226 pd=2.26 as=0 ps=0 w=0.87 l=1.97
X1 VGND VPWR VGND VNB sky130_fd_pr__nfet_01v8 ad=0.143 pd=1.62 as=0 ps=0 w=0.55 l=1.97
.ends

.subckt sky130_fd_sc_hd__decap_4 VGND VNB VPB VPWR
X0 VPWR VGND VPWR VPB sky130_fd_pr__pfet_01v8_hvt ad=0.226 pd=2.26 as=0 ps=0 w=0.87 l=1.05
X1 VGND VPWR VGND VNB sky130_fd_pr__nfet_01v8 ad=0.143 pd=1.62 as=0 ps=0 w=0.55 l=1.05
.ends

.subckt sky130_fd_sc_hd__decap_3 VGND VNB VPB VPWR
X0 VPWR VGND VPWR VPB sky130_fd_pr__pfet_01v8_hvt ad=0.226 pd=2.26 as=0 ps=0 w=0.87 l=0.59
X1 VGND VPWR VGND VNB sky130_fd_pr__nfet_01v8 ad=0.143 pd=1.62 as=0 ps=0 w=0.55 l=0.59
.ends

.subckt sky130_fd_sc_hd__decap_8 VGND VNB VPB VPWR
X0 VPWR VGND VPWR VPB sky130_fd_pr__pfet_01v8_hvt ad=0.226 pd=2.26 as=0 ps=0 w=0.87 l=2.89
X1 VGND VPWR VGND VNB sky130_fd_pr__nfet_01v8 ad=0.143 pd=1.62 as=0 ps=0 w=0.55 l=2.89
.ends

.subckt sky130_fd_sc_hd__buf_2 A VGND VNB VPB VPWR X
X0 VPWR a_27_47# X VPB sky130_fd_pr__pfet_01v8_hvt ad=0.265 pd=2.53 as=0.135 ps=1.27 w=1 l=0.15
X1 X a_27_47# VPWR VPB sky130_fd_pr__pfet_01v8_hvt ad=0.135 pd=1.27 as=0.149 ps=1.33 w=1 l=0.15
X2 VPWR A a_27_47# VPB sky130_fd_pr__pfet_01v8_hvt ad=0.149 pd=1.33 as=0.166 ps=1.8 w=0.64 l=0.15
X3 X a_27_47# VGND VNB sky130_fd_pr__nfet_01v8 ad=0.0878 pd=0.92 as=0.097 ps=0.975 w=0.65 l=0.15
X4 VGND a_27_47# X VNB sky130_fd_pr__nfet_01v8 ad=0.172 pd=1.83 as=0.0878 ps=0.92 w=0.65 l=0.15
X5 VGND A a_27_47# VNB sky130_fd_pr__nfet_01v8 ad=0.097 pd=0.975 as=0.109 ps=1.36 w=0.42 l=0.15
.ends

.subckt sky130_fd_sc_hd__diode_2 DIODE VGND VNB VPB VPWR
D0 VNB DIODE sky130_fd_pr__diode_pw2nd_05v5 pj=2.64e+06 area=4.347e+11
.ends

.subckt sky130_fd_sc_hd__conb_1 VGND VNB VPB VPWR HI LO
R0 VPWR HI sky130_fd_pr__res_generic_po w=0.48 l=0.045
R1 LO VGND sky130_fd_pr__res_generic_po w=0.48 l=0.045
.ends

.subckt sky130_fd_sc_hd__dfxtp_1 CLK D VGND VNB VPB VPWR Q
X0 Q a_1059_315# VGND VNB sky130_fd_pr__nfet_01v8 ad=0.169 pd=1.82 as=0.0878 ps=0.92 w=0.65 l=0.15
X1 a_891_413# a_193_47# a_634_159# VNB sky130_fd_pr__nfet_01v8 ad=0.0684 pd=0.74 as=0.0989 ps=0.995 w=0.36 l=0.15
X2 a_561_413# a_27_47# a_466_413# VPB sky130_fd_pr__pfet_01v8_hvt ad=0.0767 pd=0.785 as=0.0683 ps=0.745 w=0.42 l=0.15
X3 VPWR CLK a_27_47# VPB sky130_fd_pr__pfet_01v8_hvt ad=0.0864 pd=0.91 as=0.166 ps=1.8 w=0.64 l=0.15
X4 Q a_1059_315# VPWR VPB sky130_fd_pr__pfet_01v8_hvt ad=0.26 pd=2.52 as=0.135 ps=1.27 w=1 l=0.15
X5 a_381_47# D VPWR VPB sky130_fd_pr__pfet_01v8_hvt ad=0.0578 pd=0.695 as=0.109 ps=1.36 w=0.42 l=0.15
X6 VGND a_634_159# a_592_47# VNB sky130_fd_pr__nfet_01v8 ad=0.121 pd=1.09 as=0.0696 ps=0.765 w=0.42 l=0.15
X7 VPWR a_891_413# a_1059_315# VPB sky130_fd_pr__pfet_01v8_hvt ad=0.135 pd=1.27 as=0.27 ps=2.54 w=1 l=0.15
X8 a_466_413# a_193_47# a_381_47# VPB sky130_fd_pr__pfet_01v8_hvt ad=0.0683 pd=0.745 as=0.0578 ps=0.695 w=0.42 l=0.15
X9 VPWR a_634_159# a_561_413# VPB sky130_fd_pr__pfet_01v8_hvt ad=0.179 pd=1.26 as=0.0767 ps=0.785 w=0.42 l=0.15
X10 a_634_159# a_466_413# VGND VNB sky130_fd_pr__nfet_01v8 ad=0.0989 pd=0.995 as=0.121 ps=1.09 w=0.64 l=0.15
X11 a_634_159# a_466_413# VPWR VPB sky130_fd_pr__pfet_01v8_hvt ad=0.109 pd=1.08 as=0.179 ps=1.26 w=0.75 l=0.15
X12 a_975_413# a_193_47# a_891_413# VPB sky130_fd_pr__pfet_01v8_hvt ad=0.0882 pd=0.84 as=0.0567 ps=0.69 w=0.42 l=0.15
X13 VGND a_1059_315# a_1017_47# VNB sky130_fd_pr__nfet_01v8 ad=0.109 pd=1.36 as=0.066 ps=0.745 w=0.42 l=0.15
X14 a_193_47# a_27_47# VGND VNB sky130_fd_pr__nfet_01v8 ad=0.109 pd=1.36 as=0.0567 ps=0.69 w=0.42 l=0.15
X15 a_891_413# a_27_47# a_634_159# VPB sky130_fd_pr__pfet_01v8_hvt ad=0.0567 pd=0.69 as=0.109 ps=1.08 w=0.42 l=0.15
X16 a_592_47# a_193_47# a_466_413# VNB sky130_fd_pr__nfet_01v8 ad=0.0696 pd=0.765 as=0.0621 ps=0.705 w=0.36 l=0.15
X17 a_1017_47# a_27_47# a_891_413# VNB sky130_fd_pr__nfet_01v8 ad=0.066 pd=0.745 as=0.0684 ps=0.74 w=0.36 l=0.15
X18 VPWR a_1059_315# a_975_413# VPB sky130_fd_pr__pfet_01v8_hvt ad=0.111 pd=1.37 as=0.0882 ps=0.84 w=0.42 l=0.15
X19 a_466_413# a_27_47# a_381_47# VNB sky130_fd_pr__nfet_01v8 ad=0.0621 pd=0.705 as=0.0813 ps=0.83 w=0.36 l=0.15
X20 a_193_47# a_27_47# VPWR VPB sky130_fd_pr__pfet_01v8_hvt ad=0.166 pd=1.8 as=0.0864 ps=0.91 w=0.64 l=0.15
X21 VGND a_891_413# a_1059_315# VNB sky130_fd_pr__nfet_01v8 ad=0.0878 pd=0.92 as=0.169 ps=1.82 w=0.65 l=0.15
X22 a_381_47# D VGND VNB sky130_fd_pr__nfet_01v8 ad=0.0813 pd=0.83 as=0.109 ps=1.36 w=0.42 l=0.15
X23 VGND CLK a_27_47# VNB sky130_fd_pr__nfet_01v8 ad=0.0567 pd=0.69 as=0.109 ps=1.36 w=0.42 l=0.15
.ends

.subckt sky130_fd_sc_hd__nor2_1 A B VGND VNB VPB VPWR Y
X0 VPWR A a_109_297# VPB sky130_fd_pr__pfet_01v8_hvt ad=0.26 pd=2.52 as=0.105 ps=1.21 w=1 l=0.15
X1 VGND A Y VNB sky130_fd_pr__nfet_01v8 ad=0.169 pd=1.82 as=0.0878 ps=0.92 w=0.65 l=0.15
X2 a_109_297# B Y VPB sky130_fd_pr__pfet_01v8_hvt ad=0.105 pd=1.21 as=0.26 ps=2.52 w=1 l=0.15
X3 Y B VGND VNB sky130_fd_pr__nfet_01v8 ad=0.0878 pd=0.92 as=0.169 ps=1.82 w=0.65 l=0.15
.ends

.subckt sky130_fd_sc_hd__a22o_1 A1 A2 B1 B2 VGND VNB VPB VPWR X
X0 VPWR A2 a_109_297# VPB sky130_fd_pr__pfet_01v8_hvt ad=0.155 pd=1.31 as=0.16 ps=1.32 w=1 l=0.15
X1 a_27_297# B1 a_109_47# VNB sky130_fd_pr__nfet_01v8 ad=0.169 pd=1.82 as=0.0747 ps=0.88 w=0.65 l=0.15
X2 VGND A2 a_373_47# VNB sky130_fd_pr__nfet_01v8 ad=0.101 pd=0.96 as=0.114 ps=1 w=0.65 l=0.15
X3 X a_27_297# VPWR VPB sky130_fd_pr__pfet_01v8_hvt ad=0.26 pd=2.52 as=0.155 ps=1.31 w=1 l=0.15
X4 a_27_297# B1 a_109_297# VPB sky130_fd_pr__pfet_01v8_hvt ad=0.253 pd=2.52 as=0.135 ps=1.27 w=1 l=0.15
X5 a_109_297# A1 VPWR VPB sky130_fd_pr__pfet_01v8_hvt ad=0.16 pd=1.32 as=0.253 ps=2.52 w=1 l=0.15
X6 a_373_47# A1 a_27_297# VNB sky130_fd_pr__nfet_01v8 ad=0.114 pd=1 as=0.169 ps=1.82 w=0.65 l=0.15
X7 X a_27_297# VGND VNB sky130_fd_pr__nfet_01v8 ad=0.169 pd=1.82 as=0.101 ps=0.96 w=0.65 l=0.15
X8 a_109_297# B2 a_27_297# VPB sky130_fd_pr__pfet_01v8_hvt ad=0.135 pd=1.27 as=0.26 ps=2.52 w=1 l=0.15
X9 a_109_47# B2 VGND VNB sky130_fd_pr__nfet_01v8 ad=0.0747 pd=0.88 as=0.169 ps=1.82 w=0.65 l=0.15
.ends

.subckt sky130_fd_sc_hd__and4_1 A B C D VGND VNB VPB VPWR X
X0 a_27_47# C VPWR VPB sky130_fd_pr__pfet_01v8_hvt ad=0.0588 pd=0.7 as=0.0777 ps=0.79 w=0.42 l=0.15
X1 a_197_47# B a_109_47# VNB sky130_fd_pr__nfet_01v8 ad=0.0798 pd=0.8 as=0.0609 ps=0.71 w=0.42 l=0.15
X2 X a_27_47# VPWR VPB sky130_fd_pr__pfet_01v8_hvt ad=0.26 pd=2.52 as=0.312 ps=1.68 w=1 l=0.15
X3 a_303_47# C a_197_47# VNB sky130_fd_pr__nfet_01v8 ad=0.0693 pd=0.75 as=0.0798 ps=0.8 w=0.42 l=0.15
X4 a_27_47# A VPWR VPB sky130_fd_pr__pfet_01v8_hvt ad=0.0735 pd=0.77 as=0.109 ps=1.36 w=0.42 l=0.15
X5 VPWR D a_27_47# VPB sky130_fd_pr__pfet_01v8_hvt ad=0.312 pd=1.68 as=0.0588 ps=0.7 w=0.42 l=0.15
X6 VGND D a_303_47# VNB sky130_fd_pr__nfet_01v8 ad=0.196 pd=1.33 as=0.0693 ps=0.75 w=0.42 l=0.15
X7 VPWR B a_27_47# VPB sky130_fd_pr__pfet_01v8_hvt ad=0.0777 pd=0.79 as=0.0735 ps=0.77 w=0.42 l=0.15
X8 X a_27_47# VGND VNB sky130_fd_pr__nfet_01v8 ad=0.169 pd=1.82 as=0.196 ps=1.33 w=0.65 l=0.15
X9 a_109_47# A a_27_47# VNB sky130_fd_pr__nfet_01v8 ad=0.0609 pd=0.71 as=0.109 ps=1.36 w=0.42 l=0.15
.ends

.subckt sky130_fd_sc_hd__nor2_8 A B VGND VNB VPB VPWR Y
X0 VPWR A a_27_297# VPB sky130_fd_pr__pfet_01v8_hvt ad=0.135 pd=1.27 as=0.135 ps=1.27 w=1 l=0.15
X1 Y B a_27_297# VPB sky130_fd_pr__pfet_01v8_hvt ad=0.135 pd=1.27 as=0.135 ps=1.27 w=1 l=0.15
X2 a_27_297# B Y VPB sky130_fd_pr__pfet_01v8_hvt ad=0.135 pd=1.27 as=0.135 ps=1.27 w=1 l=0.15
X3 Y A VGND VNB sky130_fd_pr__nfet_01v8 ad=0.0878 pd=0.92 as=0.0878 ps=0.92 w=0.65 l=0.15
X4 a_27_297# A VPWR VPB sky130_fd_pr__pfet_01v8_hvt ad=0.135 pd=1.27 as=0.135 ps=1.27 w=1 l=0.15
X5 Y B VGND VNB sky130_fd_pr__nfet_01v8 ad=0.0878 pd=0.92 as=0.0878 ps=0.92 w=0.65 l=0.15
X6 a_27_297# B Y VPB sky130_fd_pr__pfet_01v8_hvt ad=0.135 pd=1.27 as=0.135 ps=1.27 w=1 l=0.15
X7 Y B a_27_297# VPB sky130_fd_pr__pfet_01v8_hvt ad=0.135 pd=1.27 as=0.135 ps=1.27 w=1 l=0.15
X8 VGND A Y VNB sky130_fd_pr__nfet_01v8 ad=0.0878 pd=0.92 as=0.0878 ps=0.92 w=0.65 l=0.15
X9 a_27_297# A VPWR VPB sky130_fd_pr__pfet_01v8_hvt ad=0.135 pd=1.27 as=0.135 ps=1.27 w=1 l=0.15
X10 Y A VGND VNB sky130_fd_pr__nfet_01v8 ad=0.0878 pd=0.92 as=0.182 ps=1.86 w=0.65 l=0.15
X11 VGND A Y VNB sky130_fd_pr__nfet_01v8 ad=0.0878 pd=0.92 as=0.0878 ps=0.92 w=0.65 l=0.15
X12 VGND A Y VNB sky130_fd_pr__nfet_01v8 ad=0.0878 pd=0.92 as=0.0878 ps=0.92 w=0.65 l=0.15
X13 VGND A Y VNB sky130_fd_pr__nfet_01v8 ad=0.0878 pd=0.92 as=0.0878 ps=0.92 w=0.65 l=0.15
X14 VPWR A a_27_297# VPB sky130_fd_pr__pfet_01v8_hvt ad=0.135 pd=1.27 as=0.135 ps=1.27 w=1 l=0.15
X15 a_27_297# B Y VPB sky130_fd_pr__pfet_01v8_hvt ad=0.27 pd=2.54 as=0.135 ps=1.27 w=1 l=0.15
X16 Y B a_27_297# VPB sky130_fd_pr__pfet_01v8_hvt ad=0.135 pd=1.27 as=0.135 ps=1.27 w=1 l=0.15
X17 VPWR A a_27_297# VPB sky130_fd_pr__pfet_01v8_hvt ad=0.135 pd=1.27 as=0.28 ps=2.56 w=1 l=0.15
X18 Y A VGND VNB sky130_fd_pr__nfet_01v8 ad=0.0878 pd=0.92 as=0.0878 ps=0.92 w=0.65 l=0.15
X19 a_27_297# B Y VPB sky130_fd_pr__pfet_01v8_hvt ad=0.135 pd=1.27 as=0.135 ps=1.27 w=1 l=0.15
X20 Y A VGND VNB sky130_fd_pr__nfet_01v8 ad=0.0878 pd=0.92 as=0.0878 ps=0.92 w=0.65 l=0.15
X21 Y B VGND VNB sky130_fd_pr__nfet_01v8 ad=0.0878 pd=0.92 as=0.0878 ps=0.92 w=0.65 l=0.15
X22 Y B VGND VNB sky130_fd_pr__nfet_01v8 ad=0.0878 pd=0.92 as=0.0878 ps=0.92 w=0.65 l=0.15
X23 Y B VGND VNB sky130_fd_pr__nfet_01v8 ad=0.0878 pd=0.92 as=0.0878 ps=0.92 w=0.65 l=0.15
X24 Y B a_27_297# VPB sky130_fd_pr__pfet_01v8_hvt ad=0.135 pd=1.27 as=0.135 ps=1.27 w=1 l=0.15
X25 a_27_297# A VPWR VPB sky130_fd_pr__pfet_01v8_hvt ad=0.135 pd=1.27 as=0.135 ps=1.27 w=1 l=0.15
X26 VGND B Y VNB sky130_fd_pr__nfet_01v8 ad=0.0878 pd=0.92 as=0.0878 ps=0.92 w=0.65 l=0.15
X27 VPWR A a_27_297# VPB sky130_fd_pr__pfet_01v8_hvt ad=0.135 pd=1.27 as=0.135 ps=1.27 w=1 l=0.15
X28 VGND B Y VNB sky130_fd_pr__nfet_01v8 ad=0.0878 pd=0.92 as=0.0878 ps=0.92 w=0.65 l=0.15
X29 VGND B Y VNB sky130_fd_pr__nfet_01v8 ad=0.0878 pd=0.92 as=0.0878 ps=0.92 w=0.65 l=0.15
X30 VGND B Y VNB sky130_fd_pr__nfet_01v8 ad=0.169 pd=1.82 as=0.0878 ps=0.92 w=0.65 l=0.15
X31 a_27_297# A VPWR VPB sky130_fd_pr__pfet_01v8_hvt ad=0.135 pd=1.27 as=0.135 ps=1.27 w=1 l=0.15
.ends

.subckt sky130_fd_sc_hd__o211a_1 A1 A2 B1 C1 VGND VNB VPB VPWR X
X0 VGND A1 a_215_47# VNB sky130_fd_pr__nfet_01v8 ad=0.106 pd=0.975 as=0.169 ps=1.82 w=0.65 l=0.15
X1 a_510_47# B1 a_215_47# VNB sky130_fd_pr__nfet_01v8 ad=0.114 pd=1 as=0.143 ps=1.09 w=0.65 l=0.15
X2 a_79_21# C1 VPWR VPB sky130_fd_pr__pfet_01v8_hvt ad=0.3 pd=2.6 as=0.175 ps=1.35 w=1 l=0.15
X3 VPWR B1 a_79_21# VPB sky130_fd_pr__pfet_01v8_hvt ad=0.175 pd=1.35 as=0.22 ps=1.44 w=1 l=0.15
X4 a_79_21# A2 a_297_297# VPB sky130_fd_pr__pfet_01v8_hvt ad=0.22 pd=1.44 as=0.162 ps=1.33 w=1 l=0.15
X5 a_297_297# A1 VPWR VPB sky130_fd_pr__pfet_01v8_hvt ad=0.162 pd=1.33 as=0.26 ps=2.52 w=1 l=0.15
X6 a_79_21# C1 a_510_47# VNB sky130_fd_pr__nfet_01v8 ad=0.195 pd=1.9 as=0.114 ps=1 w=0.65 l=0.15
X7 VPWR a_79_21# X VPB sky130_fd_pr__pfet_01v8_hvt ad=0.26 pd=2.52 as=0.26 ps=2.52 w=1 l=0.15
X8 VGND a_79_21# X VNB sky130_fd_pr__nfet_01v8 ad=0.169 pd=1.82 as=0.169 ps=1.82 w=0.65 l=0.15
X9 a_215_47# A2 VGND VNB sky130_fd_pr__nfet_01v8 ad=0.143 pd=1.09 as=0.106 ps=0.975 w=0.65 l=0.15
.ends

.subckt sky130_fd_sc_hd__or4_2 A B C D VGND VNB VPB VPWR X
X0 a_27_297# B VGND VNB sky130_fd_pr__nfet_01v8 ad=0.0567 pd=0.69 as=0.0567 ps=0.69 w=0.42 l=0.15
X1 a_27_297# D VGND VNB sky130_fd_pr__nfet_01v8 ad=0.0693 pd=0.75 as=0.109 ps=1.36 w=0.42 l=0.15
X2 a_277_297# B a_205_297# VPB sky130_fd_pr__pfet_01v8_hvt ad=0.0693 pd=0.75 as=0.0441 ps=0.63 w=0.42 l=0.15
X3 VPWR A a_277_297# VPB sky130_fd_pr__pfet_01v8_hvt ad=0.148 pd=1.34 as=0.0693 ps=0.75 w=0.42 l=0.15
X4 X a_27_297# VGND VNB sky130_fd_pr__nfet_01v8 ad=0.0878 pd=0.92 as=0.102 ps=0.99 w=0.65 l=0.15
X5 a_205_297# C a_109_297# VPB sky130_fd_pr__pfet_01v8_hvt ad=0.0441 pd=0.63 as=0.0693 ps=0.75 w=0.42 l=0.15
X6 VPWR a_27_297# X VPB sky130_fd_pr__pfet_01v8_hvt ad=0.305 pd=2.61 as=0.135 ps=1.27 w=1 l=0.15
X7 VGND a_27_297# X VNB sky130_fd_pr__nfet_01v8 ad=0.198 pd=1.91 as=0.0878 ps=0.92 w=0.65 l=0.15
X8 X a_27_297# VPWR VPB sky130_fd_pr__pfet_01v8_hvt ad=0.135 pd=1.27 as=0.148 ps=1.34 w=1 l=0.15
X9 VGND C a_27_297# VNB sky130_fd_pr__nfet_01v8 ad=0.0567 pd=0.69 as=0.0693 ps=0.75 w=0.42 l=0.15
X10 a_109_297# D a_27_297# VPB sky130_fd_pr__pfet_01v8_hvt ad=0.0693 pd=0.75 as=0.109 ps=1.36 w=0.42 l=0.15
X11 VGND A a_27_297# VNB sky130_fd_pr__nfet_01v8 ad=0.102 pd=0.99 as=0.0567 ps=0.69 w=0.42 l=0.15
.ends

.subckt sky130_fd_sc_hd__a31o_1 A1 A2 A3 B1 VGND VNB VPB VPWR X
X0 VPWR a_80_21# X VPB sky130_fd_pr__pfet_01v8_hvt ad=0.172 pd=1.35 as=0.265 ps=2.53 w=1 l=0.15
X1 a_209_297# A3 VPWR VPB sky130_fd_pr__pfet_01v8_hvt ad=0.16 pd=1.32 as=0.172 ps=1.35 w=1 l=0.15
X2 a_303_47# A2 a_209_47# VNB sky130_fd_pr__nfet_01v8 ad=0.107 pd=0.98 as=0.104 ps=0.97 w=0.65 l=0.15
X3 a_209_47# A3 VGND VNB sky130_fd_pr__nfet_01v8 ad=0.104 pd=0.97 as=0.112 ps=0.995 w=0.65 l=0.15
X4 VGND a_80_21# X VNB sky130_fd_pr__nfet_01v8 ad=0.112 pd=0.995 as=0.172 ps=1.83 w=0.65 l=0.15
X5 VGND B1 a_80_21# VNB sky130_fd_pr__nfet_01v8 ad=0.208 pd=1.94 as=0.107 ps=0.98 w=0.65 l=0.15
X6 a_80_21# A1 a_303_47# VNB sky130_fd_pr__nfet_01v8 ad=0.107 pd=0.98 as=0.107 ps=0.98 w=0.65 l=0.15
X7 VPWR A2 a_209_297# VPB sky130_fd_pr__pfet_01v8_hvt ad=0.165 pd=1.33 as=0.16 ps=1.32 w=1 l=0.15
X8 a_80_21# B1 a_209_297# VPB sky130_fd_pr__pfet_01v8_hvt ad=0.32 pd=2.64 as=0.165 ps=1.33 w=1 l=0.15
X9 a_209_297# A1 VPWR VPB sky130_fd_pr__pfet_01v8_hvt ad=0.165 pd=1.33 as=0.165 ps=1.33 w=1 l=0.15
.ends

.subckt sky130_fd_sc_hd__a221o_1 A1 A2 B1 B2 C1 VGND VNB VPB VPWR X
X0 a_465_47# A1 a_27_47# VNB sky130_fd_pr__nfet_01v8 ad=0.107 pd=0.98 as=0.169 ps=1.82 w=0.65 l=0.15
X1 X a_27_47# VPWR VPB sky130_fd_pr__pfet_01v8_hvt ad=0.26 pd=2.52 as=0.157 ps=1.32 w=1 l=0.15
X2 a_109_297# B1 a_193_297# VPB sky130_fd_pr__pfet_01v8_hvt ad=0.26 pd=2.52 as=0.135 ps=1.27 w=1 l=0.15
X3 a_193_297# B2 a_109_297# VPB sky130_fd_pr__pfet_01v8_hvt ad=0.135 pd=1.27 as=0.135 ps=1.27 w=1 l=0.15
X4 X a_27_47# VGND VNB sky130_fd_pr__nfet_01v8 ad=0.169 pd=1.82 as=0.102 ps=0.965 w=0.65 l=0.15
X5 a_205_47# B2 VGND VNB sky130_fd_pr__nfet_01v8 ad=0.0683 pd=0.86 as=0.107 ps=0.98 w=0.65 l=0.15
X6 VPWR A2 a_193_297# VPB sky130_fd_pr__pfet_01v8_hvt ad=0.157 pd=1.32 as=0.165 ps=1.33 w=1 l=0.15
X7 a_193_297# A1 VPWR VPB sky130_fd_pr__pfet_01v8_hvt ad=0.165 pd=1.33 as=0.26 ps=2.52 w=1 l=0.15
X8 a_27_47# B1 a_205_47# VNB sky130_fd_pr__nfet_01v8 ad=0.169 pd=1.82 as=0.0683 ps=0.86 w=0.65 l=0.15
X9 a_109_297# C1 a_27_47# VPB sky130_fd_pr__pfet_01v8_hvt ad=0.135 pd=1.27 as=0.26 ps=2.52 w=1 l=0.15
X10 VGND C1 a_27_47# VNB sky130_fd_pr__nfet_01v8 ad=0.107 pd=0.98 as=0.169 ps=1.82 w=0.65 l=0.15
X11 VGND A2 a_465_47# VNB sky130_fd_pr__nfet_01v8 ad=0.102 pd=0.965 as=0.107 ps=0.98 w=0.65 l=0.15
.ends

.subckt sky130_fd_sc_hd__o221ai_1 A1 A2 B1 B2 C1 VGND VNB VPB VPWR Y
X0 a_109_47# B1 a_213_123# VNB sky130_fd_pr__nfet_01v8 ad=0.0878 pd=0.92 as=0.165 ps=1.82 w=0.65 l=0.15
X1 Y B2 a_295_297# VPB sky130_fd_pr__pfet_01v8_hvt ad=0.225 pd=1.45 as=0.12 ps=1.24 w=1 l=0.15
X2 VPWR A1 a_493_297# VPB sky130_fd_pr__pfet_01v8_hvt ad=0.26 pd=2.52 as=0.105 ps=1.21 w=1 l=0.15
X3 a_213_123# B2 a_109_47# VNB sky130_fd_pr__nfet_01v8 ad=0.117 pd=1.01 as=0.0878 ps=0.92 w=0.65 l=0.15
X4 a_295_297# B1 VPWR VPB sky130_fd_pr__pfet_01v8_hvt ad=0.12 pd=1.24 as=0.38 ps=1.76 w=1 l=0.15
X5 a_493_297# A2 Y VPB sky130_fd_pr__pfet_01v8_hvt ad=0.105 pd=1.21 as=0.225 ps=1.45 w=1 l=0.15
X6 VPWR C1 Y VPB sky130_fd_pr__pfet_01v8_hvt ad=0.38 pd=1.76 as=0.28 ps=2.56 w=1 l=0.15
X7 VGND A2 a_213_123# VNB sky130_fd_pr__nfet_01v8 ad=0.0878 pd=0.92 as=0.117 ps=1.01 w=0.65 l=0.15
X8 a_213_123# A1 VGND VNB sky130_fd_pr__nfet_01v8 ad=0.169 pd=1.82 as=0.0878 ps=0.92 w=0.65 l=0.15
X9 a_109_47# C1 Y VNB sky130_fd_pr__nfet_01v8 ad=0.165 pd=1.82 as=0.169 ps=1.82 w=0.65 l=0.15
.ends

.subckt sky130_fd_sc_hd__clkbuf_2 A VGND VNB VPB VPWR X
X0 VPWR A a_27_47# VPB sky130_fd_pr__pfet_01v8_hvt ad=0.162 pd=1.33 as=0.265 ps=2.53 w=1 l=0.15
X1 VPWR a_27_47# X VPB sky130_fd_pr__pfet_01v8_hvt ad=0.26 pd=2.52 as=0.135 ps=1.27 w=1 l=0.15
X2 VGND A a_27_47# VNB sky130_fd_pr__nfet_01v8 ad=0.0683 pd=0.745 as=0.111 ps=1.37 w=0.42 l=0.15
X3 X a_27_47# VPWR VPB sky130_fd_pr__pfet_01v8_hvt ad=0.135 pd=1.27 as=0.162 ps=1.33 w=1 l=0.15
X4 X a_27_47# VGND VNB sky130_fd_pr__nfet_01v8 ad=0.0567 pd=0.69 as=0.0683 ps=0.745 w=0.42 l=0.15
X5 VGND a_27_47# X VNB sky130_fd_pr__nfet_01v8 ad=0.109 pd=1.36 as=0.0567 ps=0.69 w=0.42 l=0.15
.ends

.subckt sky130_fd_sc_hd__inv_2 A VGND VNB VPB VPWR Y
X0 Y A VPWR VPB sky130_fd_pr__pfet_01v8_hvt ad=0.135 pd=1.27 as=0.26 ps=2.52 w=1 l=0.15
X1 VGND A Y VNB sky130_fd_pr__nfet_01v8 ad=0.169 pd=1.82 as=0.0878 ps=0.92 w=0.65 l=0.15
X2 Y A VGND VNB sky130_fd_pr__nfet_01v8 ad=0.0878 pd=0.92 as=0.169 ps=1.82 w=0.65 l=0.15
X3 VPWR A Y VPB sky130_fd_pr__pfet_01v8_hvt ad=0.26 pd=2.52 as=0.135 ps=1.27 w=1 l=0.15
.ends

.subckt sky130_fd_sc_hd__or4bb_4 A B C_N D_N VGND VNB VPB VPWR X
X0 VPWR a_315_380# X VPB sky130_fd_pr__pfet_01v8_hvt ad=0.135 pd=1.27 as=0.135 ps=1.27 w=1 l=0.15
X1 X a_315_380# VPWR VPB sky130_fd_pr__pfet_01v8_hvt ad=0.135 pd=1.27 as=0.19 ps=1.38 w=1 l=0.15
X2 a_315_380# B VGND VNB sky130_fd_pr__nfet_01v8 ad=0.0878 pd=0.92 as=0.0878 ps=0.92 w=0.65 l=0.15
X3 VGND C_N a_27_410# VNB sky130_fd_pr__nfet_01v8 ad=0.0619 pd=0.715 as=0.109 ps=1.36 w=0.42 l=0.15
X4 VPWR C_N a_27_410# VPB sky130_fd_pr__pfet_01v8_hvt ad=0.123 pd=1.32 as=0.109 ps=1.36 w=0.42 l=0.15
X5 VPWR A a_583_297# VPB sky130_fd_pr__pfet_01v8_hvt ad=0.19 pd=1.38 as=0.135 ps=1.27 w=1 l=0.15
X6 VGND a_27_410# a_315_380# VNB sky130_fd_pr__nfet_01v8 ad=0.0878 pd=0.92 as=0.123 ps=1.03 w=0.65 l=0.15
X7 a_583_297# B a_499_297# VPB sky130_fd_pr__pfet_01v8_hvt ad=0.135 pd=1.27 as=0.135 ps=1.27 w=1 l=0.15
X8 VGND A a_315_380# VNB sky130_fd_pr__nfet_01v8 ad=0.123 pd=1.03 as=0.0878 ps=0.92 w=0.65 l=0.15
X9 a_397_297# a_205_93# a_315_380# VPB sky130_fd_pr__pfet_01v8_hvt ad=0.18 pd=1.36 as=0.258 ps=2.52 w=1 l=0.15
X10 X a_315_380# VGND VNB sky130_fd_pr__nfet_01v8 ad=0.0878 pd=0.92 as=0.123 ps=1.03 w=0.65 l=0.15
X11 X a_315_380# VGND VNB sky130_fd_pr__nfet_01v8 ad=0.0878 pd=0.92 as=0.0878 ps=0.92 w=0.65 l=0.15
X12 a_499_297# a_27_410# a_397_297# VPB sky130_fd_pr__pfet_01v8_hvt ad=0.135 pd=1.27 as=0.18 ps=1.36 w=1 l=0.15
X13 VPWR a_315_380# X VPB sky130_fd_pr__pfet_01v8_hvt ad=0.26 pd=2.52 as=0.135 ps=1.27 w=1 l=0.15
X14 a_205_93# D_N VGND VNB sky130_fd_pr__nfet_01v8 ad=0.109 pd=1.36 as=0.0619 ps=0.715 w=0.42 l=0.15
X15 a_205_93# D_N VPWR VPB sky130_fd_pr__pfet_01v8_hvt ad=0.113 pd=1.4 as=0.123 ps=1.32 w=0.42 l=0.15
X16 VGND a_315_380# X VNB sky130_fd_pr__nfet_01v8 ad=0.0878 pd=0.92 as=0.0878 ps=0.92 w=0.65 l=0.15
X17 VGND a_315_380# X VNB sky130_fd_pr__nfet_01v8 ad=0.169 pd=1.82 as=0.0878 ps=0.92 w=0.65 l=0.15
X18 a_315_380# a_205_93# VGND VNB sky130_fd_pr__nfet_01v8 ad=0.123 pd=1.03 as=0.169 ps=1.82 w=0.65 l=0.15
X19 X a_315_380# VPWR VPB sky130_fd_pr__pfet_01v8_hvt ad=0.135 pd=1.27 as=0.135 ps=1.27 w=1 l=0.15
.ends

.subckt sky130_fd_sc_hd__or4_4 A B C D VGND VNB VPB VPWR X
X0 VPWR A a_304_297# VPB sky130_fd_pr__pfet_01v8_hvt ad=0.19 pd=1.38 as=0.135 ps=1.27 w=1 l=0.15
X1 a_304_297# B a_220_297# VPB sky130_fd_pr__pfet_01v8_hvt ad=0.135 pd=1.27 as=0.135 ps=1.27 w=1 l=0.15
X2 VGND C a_32_297# VNB sky130_fd_pr__nfet_01v8 ad=0.0878 pd=0.92 as=0.123 ps=1.03 w=0.65 l=0.15
X3 a_220_297# C a_114_297# VPB sky130_fd_pr__pfet_01v8_hvt ad=0.135 pd=1.27 as=0.19 ps=1.38 w=1 l=0.15
X4 a_32_297# D VGND VNB sky130_fd_pr__nfet_01v8 ad=0.123 pd=1.03 as=0.169 ps=1.82 w=0.65 l=0.15
X5 a_32_297# B VGND VNB sky130_fd_pr__nfet_01v8 ad=0.0878 pd=0.92 as=0.0878 ps=0.92 w=0.65 l=0.15
X6 VPWR a_32_297# X VPB sky130_fd_pr__pfet_01v8_hvt ad=0.27 pd=2.54 as=0.135 ps=1.27 w=1 l=0.15
X7 X a_32_297# VPWR VPB sky130_fd_pr__pfet_01v8_hvt ad=0.135 pd=1.27 as=0.135 ps=1.27 w=1 l=0.15
X8 VGND A a_32_297# VNB sky130_fd_pr__nfet_01v8 ad=0.123 pd=1.03 as=0.0878 ps=0.92 w=0.65 l=0.15
X9 VPWR a_32_297# X VPB sky130_fd_pr__pfet_01v8_hvt ad=0.135 pd=1.27 as=0.135 ps=1.27 w=1 l=0.15
X10 X a_32_297# VGND VNB sky130_fd_pr__nfet_01v8 ad=0.0878 pd=0.92 as=0.123 ps=1.03 w=0.65 l=0.15
X11 X a_32_297# VGND VNB sky130_fd_pr__nfet_01v8 ad=0.0878 pd=0.92 as=0.0878 ps=0.92 w=0.65 l=0.15
X12 X a_32_297# VPWR VPB sky130_fd_pr__pfet_01v8_hvt ad=0.135 pd=1.27 as=0.19 ps=1.38 w=1 l=0.15
X13 a_114_297# D a_32_297# VPB sky130_fd_pr__pfet_01v8_hvt ad=0.19 pd=1.38 as=0.26 ps=2.52 w=1 l=0.15
X14 VGND a_32_297# X VNB sky130_fd_pr__nfet_01v8 ad=0.0878 pd=0.92 as=0.0878 ps=0.92 w=0.65 l=0.15
X15 VGND a_32_297# X VNB sky130_fd_pr__nfet_01v8 ad=0.179 pd=1.85 as=0.0878 ps=0.92 w=0.65 l=0.15
.ends

.subckt sky130_fd_sc_hd__clkbuf_4 A VGND VNB VPB VPWR X
X0 VPWR A a_27_47# VPB sky130_fd_pr__pfet_01v8_hvt ad=0.165 pd=1.33 as=0.265 ps=2.53 w=1 l=0.15
X1 VGND a_27_47# X VNB sky130_fd_pr__nfet_01v8 ad=0.122 pd=1.42 as=0.0588 ps=0.7 w=0.42 l=0.15
X2 VGND a_27_47# X VNB sky130_fd_pr__nfet_01v8 ad=0.0588 pd=0.7 as=0.0588 ps=0.7 w=0.42 l=0.15
X3 X a_27_47# VPWR VPB sky130_fd_pr__pfet_01v8_hvt ad=0.14 pd=1.28 as=0.14 ps=1.28 w=1 l=0.15
X4 X a_27_47# VGND VNB sky130_fd_pr__nfet_01v8 ad=0.0588 pd=0.7 as=0.0588 ps=0.7 w=0.42 l=0.15
X5 VGND A a_27_47# VNB sky130_fd_pr__nfet_01v8 ad=0.0703 pd=0.755 as=0.111 ps=1.37 w=0.42 l=0.15
X6 VPWR a_27_47# X VPB sky130_fd_pr__pfet_01v8_hvt ad=0.3 pd=2.6 as=0.14 ps=1.28 w=1 l=0.15
X7 X a_27_47# VGND VNB sky130_fd_pr__nfet_01v8 ad=0.0588 pd=0.7 as=0.0703 ps=0.755 w=0.42 l=0.15
X8 X a_27_47# VPWR VPB sky130_fd_pr__pfet_01v8_hvt ad=0.14 pd=1.28 as=0.165 ps=1.33 w=1 l=0.15
X9 VPWR a_27_47# X VPB sky130_fd_pr__pfet_01v8_hvt ad=0.14 pd=1.28 as=0.14 ps=1.28 w=1 l=0.15
.ends

.subckt sky130_fd_sc_hd__or4_1 A B C D VGND VNB VPB VPWR X
X0 a_27_297# B VGND VNB sky130_fd_pr__nfet_01v8 ad=0.0567 pd=0.69 as=0.0567 ps=0.69 w=0.42 l=0.15
X1 a_27_297# D VGND VNB sky130_fd_pr__nfet_01v8 ad=0.0693 pd=0.75 as=0.109 ps=1.36 w=0.42 l=0.15
X2 a_277_297# B a_205_297# VPB sky130_fd_pr__pfet_01v8_hvt ad=0.0693 pd=0.75 as=0.0441 ps=0.63 w=0.42 l=0.15
X3 VPWR A a_277_297# VPB sky130_fd_pr__pfet_01v8_hvt ad=0.148 pd=1.34 as=0.0693 ps=0.75 w=0.42 l=0.15
X4 X a_27_297# VGND VNB sky130_fd_pr__nfet_01v8 ad=0.176 pd=1.84 as=0.102 ps=0.99 w=0.65 l=0.15
X5 a_205_297# C a_109_297# VPB sky130_fd_pr__pfet_01v8_hvt ad=0.0441 pd=0.63 as=0.0693 ps=0.75 w=0.42 l=0.15
X6 X a_27_297# VPWR VPB sky130_fd_pr__pfet_01v8_hvt ad=0.27 pd=2.54 as=0.148 ps=1.34 w=1 l=0.15
X7 VGND C a_27_297# VNB sky130_fd_pr__nfet_01v8 ad=0.0567 pd=0.69 as=0.0693 ps=0.75 w=0.42 l=0.15
X8 a_109_297# D a_27_297# VPB sky130_fd_pr__pfet_01v8_hvt ad=0.0693 pd=0.75 as=0.109 ps=1.36 w=0.42 l=0.15
X9 VGND A a_27_297# VNB sky130_fd_pr__nfet_01v8 ad=0.102 pd=0.99 as=0.0567 ps=0.69 w=0.42 l=0.15
.ends

.subckt sky130_fd_sc_hd__or3_1 A B C VGND VNB VPB VPWR X
X0 X a_29_53# VPWR VPB sky130_fd_pr__pfet_01v8_hvt ad=0.28 pd=2.56 as=0.148 ps=1.34 w=1 l=0.15
X1 a_111_297# C a_29_53# VPB sky130_fd_pr__pfet_01v8_hvt ad=0.0441 pd=0.63 as=0.109 ps=1.36 w=0.42 l=0.15
X2 X a_29_53# VGND VNB sky130_fd_pr__nfet_01v8 ad=0.182 pd=1.86 as=0.102 ps=0.99 w=0.65 l=0.15
X3 a_183_297# B a_111_297# VPB sky130_fd_pr__pfet_01v8_hvt ad=0.0693 pd=0.75 as=0.0441 ps=0.63 w=0.42 l=0.15
X4 VPWR A a_183_297# VPB sky130_fd_pr__pfet_01v8_hvt ad=0.148 pd=1.34 as=0.0693 ps=0.75 w=0.42 l=0.15
X5 a_29_53# B VGND VNB sky130_fd_pr__nfet_01v8 ad=0.0567 pd=0.69 as=0.0567 ps=0.69 w=0.42 l=0.15
X6 VGND C a_29_53# VNB sky130_fd_pr__nfet_01v8 ad=0.0567 pd=0.69 as=0.109 ps=1.36 w=0.42 l=0.15
X7 VGND A a_29_53# VNB sky130_fd_pr__nfet_01v8 ad=0.102 pd=0.99 as=0.0567 ps=0.69 w=0.42 l=0.15
.ends

.subckt sky130_fd_sc_hd__nor3_1 A B C VGND VNB VPB VPWR Y
X0 VPWR A a_193_297# VPB sky130_fd_pr__pfet_01v8_hvt ad=0.26 pd=2.52 as=0.135 ps=1.27 w=1 l=0.15
X1 a_193_297# B a_109_297# VPB sky130_fd_pr__pfet_01v8_hvt ad=0.135 pd=1.27 as=0.135 ps=1.27 w=1 l=0.15
X2 Y B VGND VNB sky130_fd_pr__nfet_01v8 ad=0.0878 pd=0.92 as=0.0878 ps=0.92 w=0.65 l=0.15
X3 VGND A Y VNB sky130_fd_pr__nfet_01v8 ad=0.169 pd=1.82 as=0.0878 ps=0.92 w=0.65 l=0.15
X4 a_109_297# C Y VPB sky130_fd_pr__pfet_01v8_hvt ad=0.135 pd=1.27 as=0.26 ps=2.52 w=1 l=0.15
X5 VGND C Y VNB sky130_fd_pr__nfet_01v8 ad=0.0878 pd=0.92 as=0.169 ps=1.82 w=0.65 l=0.15
.ends

.subckt sky130_fd_sc_hd__buf_8 A VGND VNB VPB VPWR X
X0 X a_27_47# VGND VNB sky130_fd_pr__nfet_01v8 ad=0.0878 pd=0.92 as=0.0878 ps=0.92 w=0.65 l=0.15
X1 X a_27_47# VGND VNB sky130_fd_pr__nfet_01v8 ad=0.0878 pd=0.92 as=0.0878 ps=0.92 w=0.65 l=0.15
X2 X a_27_47# VGND VNB sky130_fd_pr__nfet_01v8 ad=0.0878 pd=0.92 as=0.0878 ps=0.92 w=0.65 l=0.15
X3 VPWR a_27_47# X VPB sky130_fd_pr__pfet_01v8_hvt ad=0.135 pd=1.27 as=0.135 ps=1.27 w=1 l=0.15
X4 X a_27_47# VPWR VPB sky130_fd_pr__pfet_01v8_hvt ad=0.135 pd=1.27 as=0.135 ps=1.27 w=1 l=0.15
X5 VGND a_27_47# X VNB sky130_fd_pr__nfet_01v8 ad=0.169 pd=1.82 as=0.0878 ps=0.92 w=0.65 l=0.15
X6 VPWR A a_27_47# VPB sky130_fd_pr__pfet_01v8_hvt ad=0.135 pd=1.27 as=0.135 ps=1.27 w=1 l=0.15
X7 VPWR a_27_47# X VPB sky130_fd_pr__pfet_01v8_hvt ad=0.26 pd=2.52 as=0.135 ps=1.27 w=1 l=0.15
X8 a_27_47# A VPWR VPB sky130_fd_pr__pfet_01v8_hvt ad=0.135 pd=1.27 as=0.135 ps=1.27 w=1 l=0.15
X9 X a_27_47# VPWR VPB sky130_fd_pr__pfet_01v8_hvt ad=0.135 pd=1.27 as=0.135 ps=1.27 w=1 l=0.15
X10 a_27_47# A VGND VNB sky130_fd_pr__nfet_01v8 ad=0.0878 pd=0.92 as=0.0878 ps=0.92 w=0.65 l=0.15
X11 X a_27_47# VGND VNB sky130_fd_pr__nfet_01v8 ad=0.0878 pd=0.92 as=0.0878 ps=0.92 w=0.65 l=0.15
X12 VPWR a_27_47# X VPB sky130_fd_pr__pfet_01v8_hvt ad=0.135 pd=1.27 as=0.135 ps=1.27 w=1 l=0.15
X13 X a_27_47# VPWR VPB sky130_fd_pr__pfet_01v8_hvt ad=0.135 pd=1.27 as=0.135 ps=1.27 w=1 l=0.15
X14 VGND A a_27_47# VNB sky130_fd_pr__nfet_01v8 ad=0.0878 pd=0.92 as=0.0878 ps=0.92 w=0.65 l=0.15
X15 VGND a_27_47# X VNB sky130_fd_pr__nfet_01v8 ad=0.0878 pd=0.92 as=0.0878 ps=0.92 w=0.65 l=0.15
X16 VPWR a_27_47# X VPB sky130_fd_pr__pfet_01v8_hvt ad=0.135 pd=1.27 as=0.135 ps=1.27 w=1 l=0.15
X17 VGND a_27_47# X VNB sky130_fd_pr__nfet_01v8 ad=0.0878 pd=0.92 as=0.0878 ps=0.92 w=0.65 l=0.15
X18 VGND a_27_47# X VNB sky130_fd_pr__nfet_01v8 ad=0.0878 pd=0.92 as=0.0878 ps=0.92 w=0.65 l=0.15
X19 X a_27_47# VPWR VPB sky130_fd_pr__pfet_01v8_hvt ad=0.135 pd=1.27 as=0.135 ps=1.27 w=1 l=0.15
X20 VPWR A a_27_47# VPB sky130_fd_pr__pfet_01v8_hvt ad=0.135 pd=1.27 as=0.26 ps=2.52 w=1 l=0.15
X21 VGND A a_27_47# VNB sky130_fd_pr__nfet_01v8 ad=0.0878 pd=0.92 as=0.169 ps=1.82 w=0.65 l=0.15
.ends

.subckt sky130_fd_sc_hd__a21oi_1 A1 A2 B1 VGND VNB VPB VPWR Y
X0 a_199_47# A1 Y VNB sky130_fd_pr__nfet_01v8 ad=0.0959 pd=0.945 as=0.091 ps=0.93 w=0.65 l=0.15
X1 a_113_297# A2 VPWR VPB sky130_fd_pr__pfet_01v8_hvt ad=0.265 pd=2.53 as=0.147 ps=1.29 w=1 l=0.15
X2 Y B1 VGND VNB sky130_fd_pr__nfet_01v8 ad=0.091 pd=0.93 as=0.172 ps=1.83 w=0.65 l=0.15
X3 VPWR A1 a_113_297# VPB sky130_fd_pr__pfet_01v8_hvt ad=0.147 pd=1.29 as=0.14 ps=1.28 w=1 l=0.15
X4 a_113_297# B1 Y VPB sky130_fd_pr__pfet_01v8_hvt ad=0.14 pd=1.28 as=0.265 ps=2.53 w=1 l=0.15
X5 VGND A2 a_199_47# VNB sky130_fd_pr__nfet_01v8 ad=0.172 pd=1.83 as=0.0959 ps=0.945 w=0.65 l=0.15
.ends

.subckt sky130_fd_sc_hd__and3_1 A B C VGND VNB VPB VPWR X
X0 VPWR A a_27_47# VPB sky130_fd_pr__pfet_01v8_hvt ad=0.0567 pd=0.69 as=0.109 ps=1.36 w=0.42 l=0.15
X1 VPWR C a_27_47# VPB sky130_fd_pr__pfet_01v8_hvt ad=0.142 pd=1.34 as=0.0662 ps=0.735 w=0.42 l=0.15
X2 a_181_47# B a_109_47# VNB sky130_fd_pr__nfet_01v8 ad=0.0441 pd=0.63 as=0.0441 ps=0.63 w=0.42 l=0.15
X3 VGND C a_181_47# VNB sky130_fd_pr__nfet_01v8 ad=0.132 pd=1.14 as=0.0441 ps=0.63 w=0.42 l=0.15
X4 a_27_47# B VPWR VPB sky130_fd_pr__pfet_01v8_hvt ad=0.0662 pd=0.735 as=0.0567 ps=0.69 w=0.42 l=0.15
X5 X a_27_47# VPWR VPB sky130_fd_pr__pfet_01v8_hvt ad=0.26 pd=2.52 as=0.142 ps=1.34 w=1 l=0.15
X6 X a_27_47# VGND VNB sky130_fd_pr__nfet_01v8 ad=0.169 pd=1.82 as=0.132 ps=1.14 w=0.65 l=0.15
X7 a_109_47# A a_27_47# VNB sky130_fd_pr__nfet_01v8 ad=0.0441 pd=0.63 as=0.109 ps=1.36 w=0.42 l=0.15
.ends

.subckt sky130_fd_sc_hd__buf_4 A VGND VNB VPB VPWR X
X0 VPWR a_27_47# X VPB sky130_fd_pr__pfet_01v8_hvt ad=0.26 pd=2.52 as=0.135 ps=1.27 w=1 l=0.15
X1 X a_27_47# VPWR VPB sky130_fd_pr__pfet_01v8_hvt ad=0.135 pd=1.27 as=0.135 ps=1.27 w=1 l=0.15
X2 VPWR a_27_47# X VPB sky130_fd_pr__pfet_01v8_hvt ad=0.135 pd=1.27 as=0.135 ps=1.27 w=1 l=0.15
X3 X a_27_47# VPWR VPB sky130_fd_pr__pfet_01v8_hvt ad=0.135 pd=1.27 as=0.135 ps=1.27 w=1 l=0.15
X4 X a_27_47# VGND VNB sky130_fd_pr__nfet_01v8 ad=0.0878 pd=0.92 as=0.0878 ps=0.92 w=0.65 l=0.15
X5 X a_27_47# VGND VNB sky130_fd_pr__nfet_01v8 ad=0.0878 pd=0.92 as=0.0878 ps=0.92 w=0.65 l=0.15
X6 VGND a_27_47# X VNB sky130_fd_pr__nfet_01v8 ad=0.0878 pd=0.92 as=0.0878 ps=0.92 w=0.65 l=0.15
X7 VGND a_27_47# X VNB sky130_fd_pr__nfet_01v8 ad=0.169 pd=1.82 as=0.0878 ps=0.92 w=0.65 l=0.15
X8 VPWR A a_27_47# VPB sky130_fd_pr__pfet_01v8_hvt ad=0.135 pd=1.27 as=0.26 ps=2.52 w=1 l=0.15
X9 VGND A a_27_47# VNB sky130_fd_pr__nfet_01v8 ad=0.0878 pd=0.92 as=0.169 ps=1.82 w=0.65 l=0.15
.ends

.subckt sky130_fd_sc_hd__a221o_2 A1 A2 B1 B2 C1 VGND VNB VPB VPWR X
X0 VPWR a_27_47# X VPB sky130_fd_pr__pfet_01v8_hvt ad=0.285 pd=2.57 as=0.135 ps=1.27 w=1 l=0.15
X1 a_465_47# A1 a_27_47# VNB sky130_fd_pr__nfet_01v8 ad=0.107 pd=0.98 as=0.169 ps=1.82 w=0.65 l=0.15
X2 X a_27_47# VPWR VPB sky130_fd_pr__pfet_01v8_hvt ad=0.135 pd=1.27 as=0.157 ps=1.32 w=1 l=0.15
X3 a_109_297# B1 a_193_297# VPB sky130_fd_pr__pfet_01v8_hvt ad=0.26 pd=2.52 as=0.135 ps=1.27 w=1 l=0.15
X4 a_193_297# B2 a_109_297# VPB sky130_fd_pr__pfet_01v8_hvt ad=0.135 pd=1.27 as=0.135 ps=1.27 w=1 l=0.15
X5 X a_27_47# VGND VNB sky130_fd_pr__nfet_01v8 ad=0.0878 pd=0.92 as=0.102 ps=0.965 w=0.65 l=0.15