*SPEF "ieee 1481-1999"
*DESIGN "TOP_digital"
*DATE "11:11:11 Fri 11 11, 1111"
*VENDOR "OpenRCX"
*PROGRAM "Parallel Extraction"
*VERSION "1.0"
*DESIGN_FLOW "NAME_SCOPE LOCAL" "PIN_CAP NONE"
*DIVIDER /
*DELIMITER :
*BUS_DELIMITER []
*T_UNIT 1 NS
*C_UNIT 1 PF
*R_UNIT 1 OHM
*L_UNIT 1 HENRY

*NAME_MAP
*1 analog_io[0]
*2 analog_io[10]
*3 analog_io[11]
*4 analog_io[12]
*5 analog_io[13]
*6 analog_io[14]
*7 analog_io[15]
*8 analog_io[16]
*9 analog_io[17]
*10 analog_io[18]
*11 analog_io[19]
*12 analog_io[1]
*13 analog_io[20]
*14 analog_io[21]
*15 analog_io[22]
*16 analog_io[23]
*17 analog_io[24]
*18 analog_io[25]
*19 analog_io[26]
*20 analog_io[27]
*21 analog_io[28]
*22 analog_io[2]
*23 analog_io[3]
*24 analog_io[4]
*25 analog_io[5]
*26 analog_io[6]
*27 analog_io[7]
*28 analog_io[8]
*29 analog_io[9]
*30 analog_trigger_in
*31 analog_trigger_out
*32 io_in[0]
*33 io_in[10]
*34 io_in[11]
*35 io_in[12]
*36 io_in[13]
*37 io_in[14]
*38 io_in[15]
*39 io_in[16]
*40 io_in[17]
*41 io_in[18]
*42 io_in[19]
*43 io_in[1]
*44 io_in[20]
*45 io_in[21]
*46 io_in[22]
*47 io_in[23]
*48 io_in[24]
*49 io_in[25]
*50 io_in[26]
*51 io_in[27]
*52 io_in[28]
*53 io_in[29]
*54 io_in[2]
*55 io_in[30]
*56 io_in[31]
*57 io_in[32]
*58 io_in[33]
*59 io_in[34]
*60 io_in[35]
*61 io_in[36]
*62 io_in[37]
*63 io_in[3]
*64 io_in[4]
*65 io_in[5]
*66 io_in[6]
*67 io_in[7]
*68 io_in[8]
*69 io_in[9]
*70 io_oeb[0]
*71 io_oeb[10]
*72 io_oeb[11]
*73 io_oeb[12]
*74 io_oeb[13]
*75 io_oeb[14]
*76 io_oeb[15]
*77 io_oeb[16]
*78 io_oeb[17]
*79 io_oeb[18]
*80 io_oeb[19]
*81 io_oeb[1]
*82 io_oeb[20]
*83 io_oeb[21]
*84 io_oeb[22]
*85 io_oeb[23]
*86 io_oeb[24]
*87 io_oeb[25]
*88 io_oeb[26]
*89 io_oeb[27]
*90 io_oeb[28]
*91 io_oeb[29]
*92 io_oeb[2]
*93 io_oeb[30]
*94 io_oeb[31]
*95 io_oeb[32]
*96 io_oeb[33]
*97 io_oeb[34]
*98 io_oeb[35]
*99 io_oeb[36]
*100 io_oeb[37]
*101 io_oeb[3]
*102 io_oeb[4]
*103 io_oeb[5]
*104 io_oeb[6]
*105 io_oeb[7]
*106 io_oeb[8]
*107 io_oeb[9]
*108 io_out[0]
*109 io_out[10]
*110 io_out[11]
*111 io_out[12]
*112 io_out[13]
*113 io_out[14]
*114 io_out[15]
*115 io_out[16]
*116 io_out[17]
*117 io_out[18]
*118 io_out[19]
*119 io_out[1]
*120 io_out[20]
*121 io_out[21]
*122 io_out[22]
*123 io_out[23]
*124 io_out[24]
*125 io_out[25]
*126 io_out[26]
*127 io_out[27]
*128 io_out[28]
*129 io_out[29]
*130 io_out[2]
*131 io_out[30]
*132 io_out[31]
*133 io_out[32]
*134 io_out[33]
*135 io_out[34]
*136 io_out[35]
*137 io_out[36]
*138 io_out[37]
*139 io_out[3]
*140 io_out[4]
*141 io_out[5]
*142 io_out[6]
*143 io_out[7]
*144 io_out[8]
*145 io_out[9]
*146 la_data_in[0]
*147 la_data_in[100]
*148 la_data_in[101]
*149 la_data_in[102]
*150 la_data_in[103]
*151 la_data_in[104]
*152 la_data_in[105]
*153 la_data_in[106]
*154 la_data_in[107]
*155 la_data_in[108]
*156 la_data_in[109]
*157 la_data_in[10]
*158 la_data_in[110]
*159 la_data_in[111]
*160 la_data_in[112]
*161 la_data_in[113]
*162 la_data_in[114]
*163 la_data_in[115]
*164 la_data_in[116]
*165 la_data_in[117]
*166 la_data_in[118]
*167 la_data_in[119]
*168 la_data_in[11]
*169 la_data_in[120]
*170 la_data_in[121]
*171 la_data_in[122]
*172 la_data_in[123]
*173 la_data_in[124]
*174 la_data_in[125]
*175 la_data_in[126]
*176 la_data_in[127]
*177 la_data_in[12]
*178 la_data_in[13]
*179 la_data_in[14]
*180 la_data_in[15]
*181 la_data_in[16]
*182 la_data_in[17]
*183 la_data_in[18]
*184 la_data_in[19]
*185 la_data_in[1]
*186 la_data_in[20]
*187 la_data_in[21]
*188 la_data_in[22]
*189 la_data_in[23]
*190 la_data_in[24]
*191 la_data_in[25]
*192 la_data_in[26]
*193 la_data_in[27]
*194 la_data_in[28]
*195 la_data_in[29]
*196 la_data_in[2]
*197 la_data_in[30]
*198 la_data_in[31]
*199 la_data_in[32]
*200 la_data_in[33]
*201 la_data_in[34]
*202 la_data_in[35]
*203 la_data_in[36]
*204 la_data_in[37]
*205 la_data_in[38]
*206 la_data_in[39]
*207 la_data_in[3]
*208 la_data_in[40]
*209 la_data_in[41]
*210 la_data_in[42]
*211 la_data_in[43]
*212 la_data_in[44]
*213 la_data_in[45]
*214 la_data_in[46]
*215 la_data_in[47]
*216 la_data_in[48]
*217 la_data_in[49]
*218 la_data_in[4]
*219 la_data_in[50]
*220 la_data_in[51]
*221 la_data_in[52]
*222 la_data_in[53]
*223 la_data_in[54]
*224 la_data_in[55]
*225 la_data_in[56]
*226 la_data_in[57]
*227 la_data_in[58]
*228 la_data_in[59]
*229 la_data_in[5]
*230 la_data_in[60]
*231 la_data_in[61]
*232 la_data_in[62]
*233 la_data_in[63]
*234 la_data_in[64]
*235 la_data_in[65]
*236 la_data_in[66]
*237 la_data_in[67]
*238 la_data_in[68]
*239 la_data_in[69]
*240 la_data_in[6]
*241 la_data_in[70]
*242 la_data_in[71]
*243 la_data_in[72]
*244 la_data_in[73]
*245 la_data_in[74]
*246 la_data_in[75]
*247 la_data_in[76]
*248 la_data_in[77]
*249 la_data_in[78]
*250 la_data_in[79]
*251 la_data_in[7]
*252 la_data_in[80]
*253 la_data_in[81]
*254 la_data_in[82]
*255 la_data_in[83]
*256 la_data_in[84]
*257 la_data_in[85]
*258 la_data_in[86]
*259 la_data_in[87]
*260 la_data_in[88]
*261 la_data_in[89]
*262 la_data_in[8]
*263 la_data_in[90]
*264 la_data_in[91]
*265 la_data_in[92]
*266 la_data_in[93]
*267 la_data_in[94]
*268 la_data_in[95]
*269 la_data_in[96]
*270 la_data_in[97]
*271 la_data_in[98]
*272 la_data_in[99]
*273 la_data_in[9]
*274 la_data_out[0]
*275 la_data_out[100]
*276 la_data_out[101]
*277 la_data_out[102]
*278 la_data_out[103]
*279 la_data_out[104]
*280 la_data_out[105]
*281 la_data_out[106]
*282 la_data_out[107]
*283 la_data_out[108]
*284 la_data_out[109]
*285 la_data_out[10]
*286 la_data_out[110]
*287 la_data_out[111]
*288 la_data_out[112]
*289 la_data_out[113]
*290 la_data_out[114]
*291 la_data_out[115]
*292 la_data_out[116]
*293 la_data_out[117]
*294 la_data_out[118]
*295 la_data_out[119]
*296 la_data_out[11]
*297 la_data_out[120]
*298 la_data_out[121]
*299 la_data_out[122]
*300 la_data_out[123]
*301 la_data_out[124]
*302 la_data_out[125]
*303 la_data_out[126]
*304 la_data_out[127]
*305 la_data_out[12]
*306 la_data_out[13]
*307 la_data_out[14]
*308 la_data_out[15]
*309 la_data_out[16]
*310 la_data_out[17]
*311 la_data_out[18]
*312 la_data_out[19]
*313 la_data_out[1]
*314 la_data_out[20]
*315 la_data_out[21]
*316 la_data_out[22]
*317 la_data_out[23]
*318 la_data_out[24]
*319 la_data_out[25]
*320 la_data_out[26]
*321 la_data_out[27]
*322 la_data_out[28]
*323 la_data_out[29]
*324 la_data_out[2]
*325 la_data_out[30]
*326 la_data_out[31]
*327 la_data_out[32]
*328 la_data_out[33]
*329 la_data_out[34]
*330 la_data_out[35]
*331 la_data_out[36]
*332 la_data_out[37]
*333 la_data_out[38]
*334 la_data_out[39]
*335 la_data_out[3]
*336 la_data_out[40]
*337 la_data_out[41]
*338 la_data_out[42]
*339 la_data_out[43]
*340 la_data_out[44]
*341 la_data_out[45]
*342 la_data_out[46]
*343 la_data_out[47]
*344 la_data_out[48]
*345 la_data_out[49]
*346 la_data_out[4]
*347 la_data_out[50]
*348 la_data_out[51]
*349 la_data_out[52]
*350 la_data_out[53]
*351 la_data_out[54]
*352 la_data_out[55]
*353 la_data_out[56]
*354 la_data_out[57]
*355 la_data_out[58]
*356 la_data_out[59]
*357 la_data_out[5]
*358 la_data_out[60]
*359 la_data_out[61]
*360 la_data_out[62]
*361 la_data_out[63]
*362 la_data_out[64]
*363 la_data_out[65]
*364 la_data_out[66]
*365 la_data_out[67]
*366 la_data_out[68]
*367 la_data_out[69]
*368 la_data_out[6]
*369 la_data_out[70]
*370 la_data_out[71]
*371 la_data_out[72]
*372 la_data_out[73]
*373 la_data_out[74]
*374 la_data_out[75]
*375 la_data_out[76]
*376 la_data_out[77]
*377 la_data_out[78]
*378 la_data_out[79]
*379 la_data_out[7]
*380 la_data_out[80]
*381 la_data_out[81]
*382 la_data_out[82]
*383 la_data_out[83]
*384 la_data_out[84]
*385 la_data_out[85]
*386 la_data_out[86]
*387 la_data_out[87]
*388 la_data_out[88]
*389 la_data_out[89]
*390 la_data_out[8]
*391 la_data_out[90]
*392 la_data_out[91]
*393 la_data_out[92]
*394 la_data_out[93]
*395 la_data_out[94]
*396 la_data_out[95]
*397 la_data_out[96]
*398 la_data_out[97]
*399 la_data_out[98]
*400 la_data_out[99]
*401 la_data_out[9]
*402 la_oenb[0]
*403 la_oenb[100]
*404 la_oenb[101]
*405 la_oenb[102]
*406 la_oenb[103]
*407 la_oenb[104]
*408 la_oenb[105]
*409 la_oenb[106]
*410 la_oenb[107]
*411 la_oenb[108]
*412 la_oenb[109]
*413 la_oenb[10]
*414 la_oenb[110]
*415 la_oenb[111]
*416 la_oenb[112]
*417 la_oenb[113]
*418 la_oenb[114]
*419 la_oenb[115]
*420 la_oenb[116]
*421 la_oenb[117]
*422 la_oenb[118]
*423 la_oenb[119]
*424 la_oenb[11]
*425 la_oenb[120]
*426 la_oenb[121]
*427 la_oenb[122]
*428 la_oenb[123]
*429 la_oenb[124]
*430 la_oenb[125]
*431 la_oenb[126]
*432 la_oenb[127]
*433 la_oenb[12]
*434 la_oenb[13]
*435 la_oenb[14]
*436 la_oenb[15]
*437 la_oenb[16]
*438 la_oenb[17]
*439 la_oenb[18]
*440 la_oenb[19]
*441 la_oenb[1]
*442 la_oenb[20]
*443 la_oenb[21]
*444 la_oenb[22]
*445 la_oenb[23]
*446 la_oenb[24]
*447 la_oenb[25]
*448 la_oenb[26]
*449 la_oenb[27]
*450 la_oenb[28]
*451 la_oenb[29]
*452 la_oenb[2]
*453 la_oenb[30]
*454 la_oenb[31]
*455 la_oenb[32]
*456 la_oenb[33]
*457 la_oenb[34]
*458 la_oenb[35]
*459 la_oenb[36]
*460 la_oenb[37]
*461 la_oenb[38]
*462 la_oenb[39]
*463 la_oenb[3]
*464 la_oenb[40]
*465 la_oenb[41]
*466 la_oenb[42]
*467 la_oenb[43]
*468 la_oenb[44]
*469 la_oenb[45]
*470 la_oenb[46]
*471 la_oenb[47]
*472 la_oenb[48]
*473 la_oenb[49]
*474 la_oenb[4]
*475 la_oenb[50]
*476 la_oenb[51]
*477 la_oenb[52]
*478 la_oenb[53]
*479 la_oenb[54]
*480 la_oenb[55]
*481 la_oenb[56]
*482 la_oenb[57]
*483 la_oenb[58]
*484 la_oenb[59]
*485 la_oenb[5]
*486 la_oenb[60]
*487 la_oenb[61]
*488 la_oenb[62]
*489 la_oenb[63]
*490 la_oenb[64]
*491 la_oenb[65]
*492 la_oenb[66]
*493 la_oenb[67]
*494 la_oenb[68]
*495 la_oenb[69]
*496 la_oenb[6]
*497 la_oenb[70]
*498 la_oenb[71]
*499 la_oenb[72]
*500 la_oenb[73]
*501 la_oenb[74]
*502 la_oenb[75]
*503 la_oenb[76]
*504 la_oenb[77]
*505 la_oenb[78]
*506 la_oenb[79]
*507 la_oenb[7]
*508 la_oenb[80]
*509 la_oenb[81]
*510 la_oenb[82]
*511 la_oenb[83]
*512 la_oenb[84]
*513 la_oenb[85]
*514 la_oenb[86]
*515 la_oenb[87]
*516 la_oenb[88]
*517 la_oenb[89]
*518 la_oenb[8]
*519 la_oenb[90]
*520 la_oenb[91]
*521 la_oenb[92]
*522 la_oenb[93]
*523 la_oenb[94]
*524 la_oenb[95]
*525 la_oenb[96]
*526 la_oenb[97]
*527 la_oenb[98]
*528 la_oenb[99]
*529 la_oenb[9]
*530 pwm_fall_out
*531 pwm_rise_out
*532 user_clock2
*533 user_irq[0]
*534 user_irq[1]
*535 user_irq[2]
*538 wb_clk_i
*539 wb_rst_i
*540 wbs_ack_o
*541 wbs_adr_i[0]
*542 wbs_adr_i[10]
*543 wbs_adr_i[11]
*544 wbs_adr_i[12]
*545 wbs_adr_i[13]
*546 wbs_adr_i[14]
*547 wbs_adr_i[15]
*548 wbs_adr_i[16]
*549 wbs_adr_i[17]
*550 wbs_adr_i[18]
*551 wbs_adr_i[19]
*552 wbs_adr_i[1]
*553 wbs_adr_i[20]
*554 wbs_adr_i[21]
*555 wbs_adr_i[22]
*556 wbs_adr_i[23]
*557 wbs_adr_i[24]
*558 wbs_adr_i[25]
*559 wbs_adr_i[26]
*560 wbs_adr_i[27]
*561 wbs_adr_i[28]
*562 wbs_adr_i[29]
*563 wbs_adr_i[2]
*564 wbs_adr_i[30]
*565 wbs_adr_i[31]
*566 wbs_adr_i[3]
*567 wbs_adr_i[4]
*568 wbs_adr_i[5]
*569 wbs_adr_i[6]
*570 wbs_adr_i[7]
*571 wbs_adr_i[8]
*572 wbs_adr_i[9]
*573 wbs_cyc_i
*574 wbs_dat_i[0]
*575 wbs_dat_i[10]
*576 wbs_dat_i[11]
*577 wbs_dat_i[12]
*578 wbs_dat_i[13]
*579 wbs_dat_i[14]
*580 wbs_dat_i[15]
*581 wbs_dat_i[16]
*582 wbs_dat_i[17]
*583 wbs_dat_i[18]
*584 wbs_dat_i[19]
*585 wbs_dat_i[1]
*586 wbs_dat_i[20]
*587 wbs_dat_i[21]
*588 wbs_dat_i[22]
*589 wbs_dat_i[23]
*590 wbs_dat_i[24]
*591 wbs_dat_i[25]
*592 wbs_dat_i[26]
*593 wbs_dat_i[27]
*594 wbs_dat_i[28]
*595 wbs_dat_i[29]
*596 wbs_dat_i[2]
*597 wbs_dat_i[30]
*598 wbs_dat_i[31]
*599 wbs_dat_i[3]
*600 wbs_dat_i[4]
*601 wbs_dat_i[5]
*602 wbs_dat_i[6]
*603 wbs_dat_i[7]
*604 wbs_dat_i[8]
*605 wbs_dat_i[9]
*606 wbs_dat_o[0]
*607 wbs_dat_o[10]
*608 wbs_dat_o[11]
*609 wbs_dat_o[12]
*610 wbs_dat_o[13]
*611 wbs_dat_o[14]
*612 wbs_dat_o[15]
*613 wbs_dat_o[16]
*614 wbs_dat_o[17]
*615 wbs_dat_o[18]
*616 wbs_dat_o[19]
*617 wbs_dat_o[1]
*618 wbs_dat_o[20]
*619 wbs_dat_o[21]
*620 wbs_dat_o[22]
*621 wbs_dat_o[23]
*622 wbs_dat_o[24]
*623 wbs_dat_o[25]
*624 wbs_dat_o[26]
*625 wbs_dat_o[27]
*626 wbs_dat_o[28]
*627 wbs_dat_o[29]
*628 wbs_dat_o[2]
*629 wbs_dat_o[30]
*630 wbs_dat_o[31]
*631 wbs_dat_o[3]
*632 wbs_dat_o[4]
*633 wbs_dat_o[5]
*634 wbs_dat_o[6]
*635 wbs_dat_o[7]
*636 wbs_dat_o[8]
*637 wbs_dat_o[9]
*638 wbs_sel_i[0]
*639 wbs_sel_i[1]
*640 wbs_sel_i[2]
*641 wbs_sel_i[3]
*642 wbs_stb_i
*643 wbs_we_i
*644 _000_
*645 _001_
*646 _002_
*647 _003_
*648 _004_
*649 _005_
*650 _006_
*651 _007_
*652 _008_
*653 _009_
*654 _010_
*655 _011_
*656 _012_
*657 _013_
*658 _014_
*659 _015_
*660 _016_
*661 _017_
*662 _018_
*663 _019_
*664 _020_
*665 _021_
*666 _022_
*667 _023_
*668 _024_
*669 _025_
*670 _026_
*671 _027_
*672 _028_
*673 _029_
*674 _030_
*675 _031_
*676 _032_
*677 _033_
*678 _034_
*679 _035_
*680 _036_
*681 _037_
*682 _038_
*683 _039_
*684 _040_
*685 _041_
*686 _042_
*687 _043_
*688 _044_
*689 _045_
*690 _046_
*691 _047_
*692 _048_
*693 _049_
*694 _050_
*695 _051_
*696 _052_
*697 _053_
*698 _054_
*699 _055_
*700 _056_
*701 _057_
*702 _058_
*703 _059_
*704 _060_
*705 _061_
*706 _062_
*707 _063_
*708 _064_
*709 _065_
*710 _066_
*711 _067_
*712 _068_
*713 _069_
*714 _070_
*715 _071_
*716 _072_
*717 _073_
*718 _074_
*719 _075_
*720 _076_
*721 _077_
*722 _078_
*723 _079_
*724 _080_
*725 _081_
*726 _082_
*727 _083_
*728 _084_
*729 _085_
*730 _086_
*731 _087_
*732 _088_
*733 _089_
*734 _090_
*735 _091_
*736 _092_
*737 _093_
*738 _094_
*739 _095_
*740 net1
*741 net10
*742 net100
*743 net101
*744 net102
*745 net103
*746 net104
*747 net105
*748 net106
*749 net107
*750 net108
*751 net109
*752 net11
*753 net110
*754 net111
*755 net112
*756 net113
*757 net114
*758 net115
*759 net116
*760 net117
*761 net118
*762 net119
*763 net12
*764 net120
*765 net121
*766 net122
*767 net123
*768 net124
*769 net125
*770 net126
*771 net127
*772 net128
*773 net129
*774 net13
*775 net130
*776 net131
*777 net132
*778 net133
*779 net134
*780 net135
*781 net136
*782 net137
*783 net138
*784 net139
*785 net14
*786 net140
*787 net141
*788 net142
*789 net143
*790 net144
*791 net145
*792 net146
*793 net147
*794 net148
*795 net149
*796 net15
*797 net150
*798 net151
*799 net152
*800 net153
*801 net154
*802 net155
*803 net156
*804 net157
*805 net158
*806 net159
*807 net16
*808 net160
*809 net161
*810 net162
*811 net163
*812 net164
*813 net165
*814 net166
*815 net167
*816 net168
*817 net169
*818 net17
*819 net170
*820 net171
*821 net172
*822 net173
*823 net174
*824 net175
*825 net176
*826 net177
*827 net178
*828 net179
*829 net18
*830 net180
*831 net181
*832 net182
*833 net183
*834 net184
*835 net185
*836 net186
*837 net187
*838 net188
*839 net189
*840 net19
*841 net190
*842 net191
*843 net192
*844 net193
*845 net194
*846 net195
*847 net196
*848 net197
*849 net198
*850 net199
*851 net2
*852 net20
*853 net200
*854 net201
*855 net202
*856 net203
*857 net204
*858 net205
*859 net206
*860 net207
*861 net208
*862 net209
*863 net21
*864 net210
*865 net211
*866 net212
*867 net213
*868 net214
*869 net215
*870 net216
*871 net217
*872 net218
*873 net219
*874 net22
*875 net220
*876 net221
*877 net222
*878 net223
*879 net224
*880 net225
*881 net226
*882 net227
*883 net228
*884 net229
*885 net23
*886 net230
*887 net231
*888 net232
*889 net233
*890 net234
*891 net235
*892 net236
*893 net237
*894 net238
*895 net239
*896 net24
*897 net240
*898 net241
*899 net242
*900 net243
*901 net244
*902 net245
*903 net246
*904 net247
*905 net248
*906 net249
*907 net25
*908 net250
*909 net251
*910 net252
*911 net253
*912 net254
*913 net255
*914 net256
*915 net257
*916 net258
*917 net259
*918 net26
*919 net260
*920 net261
*921 net262
*922 net263
*923 net264
*924 net265
*925 net266
*926 net267
*927 net268
*928 net269
*929 net27
*930 net270
*931 net271
*932 net272
*933 net273
*934 net274
*935 net275
*936 net276
*937 net277
*938 net278
*939 net279
*940 net28
*941 net280
*942 net281
*943 net282
*944 net283
*945 net284
*946 net285
*947 net286
*948 net287
*949 net288
*950 net289
*951 net29
*952 net290
*953 net291
*954 net292
*955 net293
*956 net294
*957 net295
*958 net296
*959 net297
*960 net298
*961 net299
*962 net3
*963 net30
*964 net300
*965 net301
*966 net302
*967 net303
*968 net304
*969 net305
*970 net306
*971 net307
*972 net308
*973 net309
*974 net31
*975 net310
*976 net311
*977 net312
*978 net313
*979 net314
*980 net315
*981 net316
*982 net317
*983 net318
*984 net319
*985 net32
*986 net320
*987 net321
*988 net322
*989 net323
*990 net324
*991 net325
*992 net326
*993 net327
*994 net328
*995 net329
*996 net33
*997 net330
*998 net331
*999 net332
*1000 net333
*1001 net334
*1002 net335
*1003 net336
*1004 net337
*1005 net338
*1006 net339
*1007 net34
*1008 net340
*1009 net341
*1010 net342
*1011 net343
*1012 net344
*1013 net345
*1014 net346
*1015 net347
*1016 net348
*1017 net349
*1018 net35
*1019 net350
*1020 net351
*1021 net352
*1022 net353
*1023 net354
*1024 net355
*1025 net356
*1026 net357
*1027 net358
*1028 net359
*1029 net36
*1030 net360
*1031 net361
*1032 net362
*1033 net363
*1034 net364
*1035 net365
*1036 net366
*1037 net367
*1038 net368
*1039 net369
*1040 net37
*1041 net370
*1042 net371
*1043 net372
*1044 net373
*1045 net374
*1046 net375
*1047 net376
*1048 net377
*1049 net378
*1050 net379
*1051 net38
*1052 net380
*1053 net381
*1054 net382
*1055 net383
*1056 net384
*1057 net385
*1058 net386
*1059 net387
*1060 net388
*1061 net389
*1062 net39
*1063 net390
*1064 net391
*1065 net392
*1066 net393
*1067 net394
*1068 net395
*1069 net396
*1070 net397
*1071 net398
*1072 net399
*1073 net4
*1074 net40
*1075 net400
*1076 net401
*1077 net402
*1078 net403
*1079 net404
*1080 net405
*1081 net406
*1082 net407
*1083 net408
*1084 net409
*1085 net41
*1086 net410
*1087 net411
*1088 net412
*1089 net413
*1090 net414
*1091 net415
*1092 net416
*1093 net417
*1094 net418
*1095 net419
*1096 net42
*1097 net420
*1098 net421
*1099 net422
*1100 net423
*1101 net424
*1102 net425
*1103 net426
*1104 net427
*1105 net428
*1106 net429
*1107 net43
*1108 net430
*1109 net431
*1110 net432
*1111 net433
*1112 net434
*1113 net435
*1114 net436
*1115 net437
*1116 net438
*1117 net439
*1118 net44
*1119 net440
*1120 net441
*1121 net442
*1122 net443
*1123 net444
*1124 net445
*1125 net446
*1126 net447
*1127 net448
*1128 net449
*1129 net45
*1130 net450
*1131 net451
*1132 net452
*1133 net453
*1134 net454
*1135 net455
*1136 net456
*1137 net457
*1138 net458
*1139 net459
*1140 net46
*1141 net460
*1142 net461
*1143 net462
*1144 net463
*1145 net464
*1146 net465
*1147 net466
*1148 net467
*1149 net468
*1150 net469
*1151 net47
*1152 net470
*1153 net471
*1154 net472
*1155 net473
*1156 net474
*1157 net475
*1158 net476
*1159 net477
*1160 net478
*1161 net479
*1162 net48
*1163 net480
*1164 net481
*1165 net482
*1166 net483
*1167 net484
*1168 net485
*1169 net486
*1170 net487
*1171 net488
*1172 net489
*1173 net49
*1174 net490
*1175 net491
*1176 net492
*1177 net493
*1178 net494
*1179 net495
*1180 net496
*1181 net497
*1182 net498
*1183 net499
*1184 net5
*1185 net50
*1186 net500
*1187 net501
*1188 net502
*1189 net503
*1190 net504
*1191 net505
*1192 net506
*1193 net507
*1194 net508
*1195 net509
*1196 net51
*1197 net510
*1198 net511
*1199 net512
*1200 net513
*1201 net514
*1202 net515
*1203 net516
*1204 net517
*1205 net518
*1206 net519
*1207 net52
*1208 net520
*1209 net521
*1210 net522
*1211 net523
*1212 net524
*1213 net525
*1214 net526
*1215 net527
*1216 net528
*1217 net529
*1218 net53
*1219 net530
*1220 net531
*1221 net532
*1222 net533
*1223 net534
*1224 net535
*1225 net536
*1226 net537
*1227 net538
*1228 net539
*1229 net54
*1230 net540
*1231 net55
*1232 net56
*1233 net57
*1234 net58
*1235 net59
*1236 net6
*1237 net60
*1238 net61
*1239 net62
*1240 net63
*1241 net64
*1242 net65
*1243 net66
*1244 net67
*1245 net68
*1246 net69
*1247 net7
*1248 net70
*1249 net71
*1250 net72
*1251 net73
*1252 net74
*1253 net75
*1254 net76
*1255 net77
*1256 net78
*1257 net79
*1258 net8
*1259 net80
*1260 net81
*1261 net82
*1262 net83
*1263 net84
*1264 net85
*1265 net86
*1266 net87
*1267 net88
*1268 net89
*1269 net9
*1270 net90
*1271 net91
*1272 net92
*1273 net93
*1274 net94
*1275 net95
*1276 net96
*1277 net97
*1278 net98
*1279 net99
*1280 pwm_counter0\.count\[0\]
*1281 pwm_counter0\.count\[1\]
*1282 pwm_counter0\.count\[2\]
*1283 pwm_counter0\.count\[3\]
*1284 pwm_counter0\.count\[4\]
*1285 pwm_counter0\.count\[5\]
*1286 pwm_counter0\.count\[6\]
*1287 pwm_counter0\.count\[7\]
*1288 pwm_fall_detector\.pos\[0\]
*1289 pwm_fall_detector\.pos\[1\]
*1290 pwm_fall_detector\.pos\[2\]
*1291 pwm_fall_detector\.pos\[3\]
*1292 pwm_fall_detector\.pos\[4\]
*1293 pwm_fall_detector\.pos\[5\]
*1294 pwm_fall_detector\.pos\[6\]
*1295 pwm_fall_detector\.pos\[7\]
*1296 pwm_rise_detector\.pos\[0\]
*1297 pwm_rise_detector\.pos\[1\]
*1298 pwm_rise_detector\.pos\[2\]
*1299 pwm_rise_detector\.pos\[3\]
*1300 pwm_rise_detector\.pos\[4\]
*1301 pwm_rise_detector\.pos\[5\]
*1302 pwm_rise_detector\.pos\[6\]
*1303 pwm_rise_detector\.pos\[7\]
*1304 ANTENNA_1
*1305 ANTENNA_10
*1306 ANTENNA_11
*1307 ANTENNA_12
*1308 ANTENNA_13
*1309 ANTENNA_14
*1310 ANTENNA_15
*1311 ANTENNA_16
*1312 ANTENNA_17
*1313 ANTENNA_18
*1314 ANTENNA_19
*1315 ANTENNA_2
*1316 ANTENNA_20
*1317 ANTENNA_21
*1318 ANTENNA_22
*1319 ANTENNA_23
*1320 ANTENNA_24
*1321 ANTENNA_25
*1322 ANTENNA_26
*1323 ANTENNA_3
*1324 ANTENNA_4
*1325 ANTENNA_5
*1326 ANTENNA_6
*1327 ANTENNA_7
*1328 ANTENNA_8
*1329 ANTENNA_9
*1330 ANTENNA__103__A
*1331 ANTENNA__124__B
*1332 ANTENNA__129__A
*1333 ANTENNA__131__A
*1334 ANTENNA__133__B1
*1335 ANTENNA__137__A
*1336 ANTENNA__139__A
*1337 ANTENNA__141__B1
*1338 ANTENNA__143__A
*1339 ANTENNA__143__B
*1340 ANTENNA__143__C
*1341 ANTENNA__143__D
*1342 ANTENNA__144__A
*1343 ANTENNA__144__B
*1344 ANTENNA__144__C
*1345 ANTENNA__144__D
*1346 ANTENNA__145__A
*1347 ANTENNA__145__B
*1348 ANTENNA__145__C
*1349 ANTENNA__145__D
*1350 ANTENNA__146__C
*1351 ANTENNA__147__A
*1352 ANTENNA__147__B
*1353 ANTENNA__147__C
*1354 ANTENNA__147__D
*1355 ANTENNA__148__A
*1356 ANTENNA__148__B
*1357 ANTENNA__148__C
*1358 ANTENNA__148__D
*1359 ANTENNA__149__A
*1360 ANTENNA__149__B
*1361 ANTENNA__149__C_N
*1362 ANTENNA__149__D_N
*1363 ANTENNA__150__A
*1364 ANTENNA__150__B
*1365 ANTENNA__150__C
*1366 ANTENNA__150__D
*1367 ANTENNA__151__B
*1368 ANTENNA__151__C
*1369 ANTENNA__151__D
*1370 ANTENNA__152__A
*1371 ANTENNA__152__B
*1372 ANTENNA__153__A
*1373 ANTENNA__153__B
*1374 ANTENNA__153__C
*1375 ANTENNA__153__D
*1376 ANTENNA__154__A
*1377 ANTENNA__154__B
*1378 ANTENNA__154__C
*1379 ANTENNA__154__D_N
*1380 ANTENNA__155__A_N
*1381 ANTENNA__155__C
*1382 ANTENNA__156__A
*1383 ANTENNA__157__A
*1384 ANTENNA__157__B
*1385 ANTENNA__157__C
*1386 ANTENNA__158__C
*1387 ANTENNA__159__A
*1388 ANTENNA__160__A1
*1389 ANTENNA__161__A1
*1390 ANTENNA__162__A1
*1391 ANTENNA__163__A1
*1392 ANTENNA__164__A1
*1393 ANTENNA__165__A1
*1394 ANTENNA__166__A1
*1395 ANTENNA__167__A1
*1396 ANTENNA__168__A1
*1397 ANTENNA__169__A1
*1398 ANTENNA__170__A1
*1399 ANTENNA__171__A1
*1400 ANTENNA__172__A1
*1401 ANTENNA__173__A1
*1402 ANTENNA__174__A1
*1403 ANTENNA__175__A1
*1404 ANTENNA__176__C
*1405 ANTENNA__177__A
*1406 ANTENNA__178__A1
*1407 ANTENNA__179__A1
*1408 ANTENNA__180__A1
*1409 ANTENNA__181__A1
*1410 ANTENNA__182__A1
*1411 ANTENNA__183__A1
*1412 ANTENNA__184__A1
*1413 ANTENNA__185__A1
*1414 ANTENNA__186__A1
*1415 ANTENNA__187__A1
*1416 ANTENNA__188__A1
*1417 ANTENNA__189__A1
*1418 ANTENNA__190__A1
*1419 ANTENNA__191__A1
*1420 ANTENNA__192__A1
*1421 ANTENNA__193__A1
*1422 ANTENNA__194__CLK
*1423 ANTENNA__195__CLK
*1424 ANTENNA__196__CLK
*1425 ANTENNA__197__CLK
*1426 ANTENNA__198__CLK
*1427 ANTENNA__199__CLK
*1428 ANTENNA__200__CLK
*1429 ANTENNA__201__CLK
*1430 ANTENNA__202__CLK
*1431 ANTENNA__202__D
*1432 ANTENNA__203__CLK
*1433 ANTENNA__204__CLK
*1434 ANTENNA__205__CLK
*1435 ANTENNA__206__CLK
*1436 ANTENNA__207__CLK
*1437 ANTENNA__208__CLK
*1438 ANTENNA__209__CLK
*1439 ANTENNA__210__CLK
*1440 ANTENNA__211__CLK
*1441 ANTENNA__212__CLK
*1442 ANTENNA__213__CLK
*1443 ANTENNA__214__CLK
*1444 ANTENNA__215__CLK
*1445 ANTENNA__216__CLK
*1446 ANTENNA__217__CLK
*1447 ANTENNA__218__CLK
*1448 ANTENNA__219__A
*1449 ANTENNA__219__A_512
*1450 ANTENNA__220__A
*1451 ANTENNA__220__A_511
*1452 ANTENNA__221__A
*1453 ANTENNA__221__A_510
*1454 ANTENNA__222__A
*1455 ANTENNA__222__A_509
*1456 ANTENNA__223__A
*1457 ANTENNA__223__A_508
*1458 ANTENNA__224__A
*1459 ANTENNA__224__A_507
*1460 ANTENNA__225__A
*1461 ANTENNA__225__A_506
*1462 ANTENNA__226__A
*1463 ANTENNA__226__A_505
*1464 ANTENNA__227__A
*1465 ANTENNA__227__A_504
*1466 ANTENNA__228__A
*1467 ANTENNA__228__A_503
*1468 ANTENNA__229__A
*1469 ANTENNA__229__A_502
*1470 ANTENNA__230__A
*1471 ANTENNA__230__A_501
*1472 ANTENNA__231__A
*1473 ANTENNA__231__A_500
*1474 ANTENNA__232__A
*1475 ANTENNA__232__A_499
*1476 ANTENNA__233__A
*1477 ANTENNA__233__A_498
*1478 ANTENNA__234__A
*1479 ANTENNA__234__A_497
*1480 ANTENNA__235__A
*1481 ANTENNA__235__A_496
*1482 ANTENNA__236__A
*1483 ANTENNA__236__A_495
*1484 ANTENNA__237__A
*1485 ANTENNA__237__A_494
*1486 ANTENNA__238__A
*1487 ANTENNA__238__A_493
*1488 ANTENNA__239__A
*1489 ANTENNA__239__A_492
*1490 ANTENNA__240__A
*1491 ANTENNA__240__A_491
*1492 ANTENNA__241__A
*1493 ANTENNA__241__A_490
*1494 ANTENNA__242__A
*1495 ANTENNA__242__A_489
*1496 ANTENNA__243__A
*1497 ANTENNA__243__A_488
*1498 ANTENNA__244__A
*1499 ANTENNA__244__A_487
*1500 ANTENNA__245__A
*1501 ANTENNA__245__A_486
*1502 ANTENNA__246__A
*1503 ANTENNA__246__A_485
*1504 ANTENNA__247__A
*1505 ANTENNA__247__A_484
*1506 ANTENNA__248__A
*1507 ANTENNA__248__A_483
*1508 ANTENNA__249__A
*1509 ANTENNA__249__A_482
*1510 ANTENNA__250__A
*1511 ANTENNA__250__A_481
*1512 ANTENNA__251__A
*1513 ANTENNA__251__A_480
*1514 ANTENNA__252__A
*1515 ANTENNA__252__A_479
*1516 ANTENNA__253__A
*1517 ANTENNA__253__A_478
*1518 ANTENNA__254__A
*1519 ANTENNA__254__A_477
*1520 ANTENNA__255__A
*1521 ANTENNA__255__A_476
*1522 ANTENNA__256__A
*1523 ANTENNA__256__A_475
*1524 ANTENNA__257__A
*1525 ANTENNA__257__A_474
*1526 ANTENNA__258__A
*1527 ANTENNA__258__A_473
*1528 ANTENNA__259__A
*1529 ANTENNA__259__A_472
*1530 ANTENNA__260__A
*1531 ANTENNA__260__A_471
*1532 ANTENNA__261__A
*1533 ANTENNA__261__A_470
*1534 ANTENNA__262__A
*1535 ANTENNA__262__A_469
*1536 ANTENNA__263__A
*1537 ANTENNA__263__A_468
*1538 ANTENNA__264__A
*1539 ANTENNA__264__A_467
*1540 ANTENNA__265__A
*1541 ANTENNA__265__A_466
*1542 ANTENNA__266__A
*1543 ANTENNA__266__A_465
*1544 ANTENNA__267__A
*1545 ANTENNA__267__A_464
*1546 ANTENNA__268__A
*1547 ANTENNA__268__A_463
*1548 ANTENNA__269__A
*1549 ANTENNA__269__A_462
*1550 ANTENNA__270__A
*1551 ANTENNA__270__A_461
*1552 ANTENNA__271__A
*1553 ANTENNA__271__A_460
*1554 ANTENNA__272__A
*1555 ANTENNA__272__A_459
*1556 ANTENNA__273__A
*1557 ANTENNA__273__A_458
*1558 ANTENNA__274__A
*1559 ANTENNA__274__A_457
*1560 ANTENNA__275__A
*1561 ANTENNA__275__A_456
*1562 ANTENNA__276__A
*1563 ANTENNA__276__A_455
*1564 ANTENNA__277__A
*1565 ANTENNA__277__A_454
*1566 ANTENNA__278__A
*1567 ANTENNA__278__A_453
*1568 ANTENNA__279__A
*1569 ANTENNA__279__A_452
*1570 ANTENNA__280__A
*1571 ANTENNA__280__A_451
*1572 ANTENNA__281__A
*1573 ANTENNA__281__A_450
*1574 ANTENNA__282__A
*1575 ANTENNA__282__A_540
*1576 ANTENNA__283__A
*1577 ANTENNA__283__A_449
*1578 ANTENNA__284__A
*1579 ANTENNA__284__A_448
*1580 ANTENNA__285__A
*1581 ANTENNA__285__A_447
*1582 ANTENNA__286__A
*1583 ANTENNA__286__A_539
*1584 ANTENNA__287__A
*1585 ANTENNA__287__A_446
*1586 ANTENNA__288__A
*1587 ANTENNA__288__A_445
*1588 ANTENNA__289__A
*1589 ANTENNA__289__A_444
*1590 ANTENNA__290__A
*1591 ANTENNA__290__A_538
*1592 ANTENNA__291__A
*1593 ANTENNA__291__A_537
*1594 ANTENNA__292__A
*1595 ANTENNA__292__A_443
*1596 ANTENNA__293__A
*1597 ANTENNA__293__A_442
*1598 ANTENNA__294__A
*1599 ANTENNA__294__A_536
*1600 ANTENNA__295__A
*1601 ANTENNA__295__A_535
*1602 ANTENNA__296__A
*1603 ANTENNA__296__A_441
*1604 ANTENNA__297__A
*1605 ANTENNA__297__A_440
*1606 ANTENNA__298__A
*1607 ANTENNA__298__A_534
*1608 ANTENNA__299__A
*1609 ANTENNA__299__A_439
*1610 ANTENNA__300__A
*1611 ANTENNA__300__A_533
*1612 ANTENNA__301__A
*1613 ANTENNA__301__A_438
*1614 ANTENNA__302__A
*1615 ANTENNA__302__A_532
*1616 ANTENNA__303__A
*1617 ANTENNA__303__A_437
*1618 ANTENNA__304__A
*1619 ANTENNA__304__A_531
*1620 ANTENNA__305__A
*1621 ANTENNA__305__A_436
*1622 ANTENNA__306__A
*1623 ANTENNA__306__A_435
*1624 ANTENNA__307__A
*1625 ANTENNA__307__A_530
*1626 ANTENNA__308__A
*1627 ANTENNA__308__A_434
*1628 ANTENNA__309__A
*1629 ANTENNA__309__A_529
*1630 ANTENNA__310__A
*1631 ANTENNA__310__A_433
*1632 ANTENNA__311__A
*1633 ANTENNA__311__A_528
*1634 ANTENNA__312__A
*1635 ANTENNA__312__A_432
*1636 ANTENNA__313__A
*1637 ANTENNA__313__A_527
*1638 ANTENNA__314__A
*1639 ANTENNA__314__A_431
*1640 ANTENNA__315__A
*1641 ANTENNA__315__A_430
*1642 ANTENNA__316__A
*1643 ANTENNA__316__A_429
*1644 ANTENNA__317__A
*1645 ANTENNA__317__A_428
*1646 ANTENNA__318__A
*1647 ANTENNA__318__A_427
*1648 ANTENNA__319__A
*1649 ANTENNA__319__A_426
*1650 ANTENNA__320__A
*1651 ANTENNA__320__A_425
*1652 ANTENNA__321__A
*1653 ANTENNA__321__A_424
*1654 ANTENNA__322__A
*1655 ANTENNA__322__A_423
*1656 ANTENNA__323__A
*1657 ANTENNA__323__A_422
*1658 ANTENNA__324__A
*1659 ANTENNA__324__A_421
*1660 ANTENNA__325__A
*1661 ANTENNA__325__A_420
*1662 ANTENNA__326__A
*1663 ANTENNA__326__A_419
*1664 ANTENNA__327__A
*1665 ANTENNA__327__A_418
*1666 ANTENNA__328__A
*1667 ANTENNA__328__A_417
*1668 ANTENNA__329__A
*1669 ANTENNA__329__A_416
*1670 ANTENNA__330__A
*1671 ANTENNA__330__A_415
*1672 ANTENNA__331__A
*1673 ANTENNA__331__A_414
*1674 ANTENNA__332__A
*1675 ANTENNA__332__A_413
*1676 ANTENNA__333__A
*1677 ANTENNA__333__A_412
*1678 ANTENNA__334__A
*1679 ANTENNA__334__A_411
*1680 ANTENNA__335__A
*1681 ANTENNA__335__A_410
*1682 ANTENNA__336__A
*1683 ANTENNA__336__A_409
*1684 ANTENNA__337__A
*1685 ANTENNA__337__A_408
*1686 ANTENNA__338__A
*1687 ANTENNA__338__A_407
*1688 ANTENNA__339__A
*1689 ANTENNA__339__A_406
*1690 ANTENNA__340__A
*1691 ANTENNA__340__A_405
*1692 ANTENNA__341__A
*1693 ANTENNA__341__A_404
*1694 ANTENNA__342__A
*1695 ANTENNA__342__A_403
*1696 ANTENNA__343__A
*1697 ANTENNA__343__A_402
*1698 ANTENNA__344__A
*1699 ANTENNA__344__A_401
*1700 ANTENNA__345__A
*1701 ANTENNA__345__A_400
*1702 ANTENNA__346__A
*1703 ANTENNA__346__A_399
*1704 ANTENNA__347__A
*1705 ANTENNA__347__A_398
*1706 ANTENNA__348__A
*1707 ANTENNA__348__A_397
*1708 ANTENNA__349__A
*1709 ANTENNA__349__A_396
*1710 ANTENNA__350__A