*SPEF "ieee 1481-1999"
*DESIGN "TOP_digital"
*DATE "11:11:11 Fri 11 11, 1111"
*VENDOR "OpenRCX"
*PROGRAM "Parallel Extraction"
*VERSION "1.0"
*DESIGN_FLOW "NAME_SCOPE LOCAL" "PIN_CAP NONE"
*DIVIDER /
*DELIMITER :
*BUS_DELIMITER []
*T_UNIT 1 NS
*C_UNIT 1 PF
*R_UNIT 1 OHM
*L_UNIT 1 HENRY

*NAME_MAP
*1 analog_io[0]
*2 analog_io[10]
*3 analog_io[11]
*4 analog_io[12]
*5 analog_io[13]
*6 analog_io[14]
*7 analog_io[15]
*8 analog_io[16]
*9 analog_io[17]
*10 analog_io[18]
*11 analog_io[19]
*12 analog_io[1]
*13 analog_io[20]
*14 analog_io[21]
*15 analog_io[22]
*16 analog_io[23]
*17 analog_io[24]
*18 analog_io[25]
*19 analog_io[26]
*20 analog_io[27]
*21 analog_io[28]
*22 analog_io[2]
*23 analog_io[3]
*24 analog_io[4]
*25 analog_io[5]
*26 analog_io[6]
*27 analog_io[7]
*28 analog_io[8]
*29 analog_io[9]
*30 analog_trigger_in
*31 analog_trigger_out
*32 io_in[0]
*33 io_in[10]
*34 io_in[11]
*35 io_in[12]
*36 io_in[13]
*37 io_in[14]
*38 io_in[15]
*39 io_in[16]
*40 io_in[17]
*41 io_in[18]
*42 io_in[19]
*43 io_in[1]
*44 io_in[20]
*45 io_in[21]
*46 io_in[22]
*47 io_in[23]
*48 io_in[24]
*49 io_in[25]
*50 io_in[26]
*51 io_in[27]
*52 io_in[28]
*53 io_in[29]
*54 io_in[2]
*55 io_in[30]
*56 io_in[31]
*57 io_in[32]
*58 io_in[33]
*59 io_in[34]
*60 io_in[35]
*61 io_in[36]
*62 io_in[37]
*63 io_in[3]
*64 io_in[4]
*65 io_in[5]
*66 io_in[6]
*67 io_in[7]
*68 io_in[8]
*69 io_in[9]
*70 la_data_in[0]
*71 la_data_in[100]
*72 la_data_in[101]
*73 la_data_in[102]
*74 la_data_in[103]
*75 la_data_in[104]
*76 la_data_in[105]
*77 la_data_in[106]
*78 la_data_in[107]
*79 la_data_in[108]
*80 la_data_in[109]
*81 la_data_in[10]
*82 la_data_in[110]
*83 la_data_in[111]
*84 la_data_in[112]
*85 la_data_in[113]
*86 la_data_in[114]
*87 la_data_in[115]
*88 la_data_in[116]
*89 la_data_in[117]
*90 la_data_in[118]
*91 la_data_in[119]
*92 la_data_in[11]
*93 la_data_in[120]
*94 la_data_in[121]
*95 la_data_in[122]
*96 la_data_in[123]
*97 la_data_in[124]
*98 la_data_in[125]
*99 la_data_in[126]
*100 la_data_in[127]
*101 la_data_in[12]
*102 la_data_in[13]
*103 la_data_in[14]
*104 la_data_in[15]
*105 la_data_in[16]
*106 la_data_in[17]
*107 la_data_in[18]
*108 la_data_in[19]
*109 la_data_in[1]
*110 la_data_in[20]
*111 la_data_in[21]
*112 la_data_in[22]
*113 la_data_in[23]
*114 la_data_in[24]
*115 la_data_in[25]
*116 la_data_in[26]
*117 la_data_in[27]
*118 la_data_in[28]
*119 la_data_in[29]
*120 la_data_in[2]
*121 la_data_in[30]
*122 la_data_in[31]
*123 la_data_in[32]
*124 la_data_in[33]
*125 la_data_in[34]
*126 la_data_in[35]
*127 la_data_in[36]
*128 la_data_in[37]
*129 la_data_in[38]
*130 la_data_in[39]
*131 la_data_in[3]
*132 la_data_in[40]
*133 la_data_in[41]
*134 la_data_in[42]
*135 la_data_in[43]
*136 la_data_in[44]
*137 la_data_in[45]
*138 la_data_in[46]
*139 la_data_in[47]
*140 la_data_in[48]
*141 la_data_in[49]
*142 la_data_in[4]
*143 la_data_in[50]
*144 la_data_in[51]
*145 la_data_in[52]
*146 la_data_in[53]
*147 la_data_in[54]
*148 la_data_in[55]
*149 la_data_in[56]
*150 la_data_in[57]
*151 la_data_in[58]
*152 la_data_in[59]
*153 la_data_in[5]
*154 la_data_in[60]
*155 la_data_in[61]
*156 la_data_in[62]
*157 la_data_in[63]
*158 la_data_in[64]
*159 la_data_in[65]
*160 la_data_in[66]
*161 la_data_in[67]
*162 la_data_in[68]
*163 la_data_in[69]
*164 la_data_in[6]
*165 la_data_in[70]
*166 la_data_in[71]
*167 la_data_in[72]
*168 la_data_in[73]
*169 la_data_in[74]
*170 la_data_in[75]
*171 la_data_in[76]
*172 la_data_in[77]
*173 la_data_in[78]
*174 la_data_in[79]
*175 la_data_in[7]
*176 la_data_in[80]
*177 la_data_in[81]
*178 la_data_in[82]
*179 la_data_in[83]
*180 la_data_in[84]
*181 la_data_in[85]
*182 la_data_in[86]
*183 la_data_in[87]
*184 la_data_in[88]
*185 la_data_in[89]
*186 la_data_in[8]
*187 la_data_in[90]
*188 la_data_in[91]
*189 la_data_in[92]
*190 la_data_in[93]
*191 la_data_in[94]
*192 la_data_in[95]
*193 la_data_in[96]
*194 la_data_in[97]
*195 la_data_in[98]
*196 la_data_in[99]
*197 la_data_in[9]
*198 la_oenb[0]
*199 la_oenb[100]
*200 la_oenb[101]
*201 la_oenb[102]
*202 la_oenb[103]
*203 la_oenb[104]
*204 la_oenb[105]
*205 la_oenb[106]
*206 la_oenb[107]
*207 la_oenb[108]
*208 la_oenb[109]
*209 la_oenb[10]
*210 la_oenb[110]
*211 la_oenb[111]
*212 la_oenb[112]
*213 la_oenb[113]
*214 la_oenb[114]
*215 la_oenb[115]
*216 la_oenb[116]
*217 la_oenb[117]
*218 la_oenb[118]
*219 la_oenb[119]
*220 la_oenb[11]
*221 la_oenb[120]
*222 la_oenb[121]
*223 la_oenb[122]
*224 la_oenb[123]
*225 la_oenb[124]
*226 la_oenb[125]
*227 la_oenb[126]
*228 la_oenb[127]
*229 la_oenb[12]
*230 la_oenb[13]
*231 la_oenb[14]
*232 la_oenb[15]
*233 la_oenb[16]
*234 la_oenb[17]
*235 la_oenb[18]
*236 la_oenb[19]
*237 la_oenb[1]
*238 la_oenb[20]
*239 la_oenb[21]
*240 la_oenb[22]
*241 la_oenb[23]
*242 la_oenb[24]
*243 la_oenb[25]
*244 la_oenb[26]
*245 la_oenb[27]
*246 la_oenb[28]
*247 la_oenb[29]
*248 la_oenb[2]
*249 la_oenb[30]
*250 la_oenb[31]
*251 la_oenb[32]
*252 la_oenb[33]
*253 la_oenb[34]
*254 la_oenb[35]
*255 la_oenb[36]
*256 la_oenb[37]
*257 la_oenb[38]
*258 la_oenb[39]
*259 la_oenb[3]
*260 la_oenb[40]
*261 la_oenb[41]
*262 la_oenb[42]
*263 la_oenb[43]
*264 la_oenb[44]
*265 la_oenb[45]
*266 la_oenb[46]
*267 la_oenb[47]
*268 la_oenb[48]
*269 la_oenb[49]
*270 la_oenb[4]
*271 la_oenb[50]
*272 la_oenb[51]
*273 la_oenb[52]
*274 la_oenb[53]
*275 la_oenb[54]
*276 la_oenb[55]
*277 la_oenb[56]
*278 la_oenb[57]
*279 la_oenb[58]
*280 la_oenb[59]
*281 la_oenb[5]
*282 la_oenb[60]
*283 la_oenb[61]
*284 la_oenb[62]
*285 la_oenb[63]
*286 la_oenb[64]
*287 la_oenb[65]
*288 la_oenb[66]
*289 la_oenb[67]
*290 la_oenb[68]
*291 la_oenb[69]
*292 la_oenb[6]
*293 la_oenb[70]
*294 la_oenb[71]
*295 la_oenb[72]
*296 la_oenb[73]
*297 la_oenb[74]
*298 la_oenb[75]
*299 la_oenb[76]
*300 la_oenb[77]
*301 la_oenb[78]
*302 la_oenb[79]
*303 la_oenb[7]
*304 la_oenb[80]
*305 la_oenb[81]
*306 la_oenb[82]
*307 la_oenb[83]
*308 la_oenb[84]
*309 la_oenb[85]
*310 la_oenb[86]
*311 la_oenb[87]
*312 la_oenb[88]
*313 la_oenb[89]
*314 la_oenb[8]
*315 la_oenb[90]
*316 la_oenb[91]
*317 la_oenb[92]
*318 la_oenb[93]
*319 la_oenb[94]
*320 la_oenb[95]
*321 la_oenb[96]
*322 la_oenb[97]
*323 la_oenb[98]
*324 la_oenb[99]
*325 la_oenb[9]
*326 pwm_fall_out
*327 pwm_rise_out
*328 user_clock2
*330 vccd2
*331 vdda1
*332 vdda2
*333 vssa1
*334 vssa2
*336 vssd2
*337 wb_clk_i
*338 wb_rst_i
*339 wbs_ack_o
*340 wbs_adr_i[0]
*341 wbs_adr_i[10]
*342 wbs_adr_i[11]
*343 wbs_adr_i[12]
*344 wbs_adr_i[13]
*345 wbs_adr_i[14]
*346 wbs_adr_i[15]
*347 wbs_adr_i[16]
*348 wbs_adr_i[17]
*349 wbs_adr_i[18]
*350 wbs_adr_i[19]
*351 wbs_adr_i[1]
*352 wbs_adr_i[20]
*353 wbs_adr_i[21]
*354 wbs_adr_i[22]
*355 wbs_adr_i[23]
*356 wbs_adr_i[24]
*357 wbs_adr_i[25]
*358 wbs_adr_i[26]
*359 wbs_adr_i[27]
*360 wbs_adr_i[28]
*361 wbs_adr_i[29]
*362 wbs_adr_i[2]
*363 wbs_adr_i[30]
*364 wbs_adr_i[31]
*365 wbs_adr_i[3]
*366 wbs_adr_i[4]
*367 wbs_adr_i[5]
*368 wbs_adr_i[6]
*369 wbs_adr_i[7]
*370 wbs_adr_i[8]
*371 wbs_adr_i[9]
*372 wbs_cyc_i
*373 wbs_dat_i[0]
*374 wbs_dat_i[10]
*375 wbs_dat_i[11]
*376 wbs_dat_i[12]
*377 wbs_dat_i[13]
*378 wbs_dat_i[14]
*379 wbs_dat_i[15]
*380 wbs_dat_i[16]
*381 wbs_dat_i[17]
*382 wbs_dat_i[18]
*383 wbs_dat_i[19]
*384 wbs_dat_i[1]
*385 wbs_dat_i[20]
*386 wbs_dat_i[21]
*387 wbs_dat_i[22]
*388 wbs_dat_i[23]
*389 wbs_dat_i[24]
*390 wbs_dat_i[25]
*391 wbs_dat_i[26]
*392 wbs_dat_i[27]
*393 wbs_dat_i[28]
*394 wbs_dat_i[29]
*395 wbs_dat_i[2]
*396 wbs_dat_i[30]
*397 wbs_dat_i[31]
*398 wbs_dat_i[3]
*399 wbs_dat_i[4]
*400 wbs_dat_i[5]
*401 wbs_dat_i[6]
*402 wbs_dat_i[7]
*403 wbs_dat_i[8]
*404 wbs_dat_i[9]
*405 wbs_dat_o[0]
*406 wbs_dat_o[10]
*407 wbs_dat_o[11]
*408 wbs_dat_o[12]
*409 wbs_dat_o[13]
*410 wbs_dat_o[14]
*411 wbs_dat_o[15]
*412 wbs_dat_o[16]
*413 wbs_dat_o[17]
*414 wbs_dat_o[18]
*415 wbs_dat_o[19]
*416 wbs_dat_o[1]
*417 wbs_dat_o[20]
*418 wbs_dat_o[21]
*419 wbs_dat_o[22]
*420 wbs_dat_o[23]
*421 wbs_dat_o[24]
*422 wbs_dat_o[25]
*423 wbs_dat_o[26]
*424 wbs_dat_o[27]
*425 wbs_dat_o[28]
*426 wbs_dat_o[29]
*427 wbs_dat_o[2]
*428 wbs_dat_o[30]
*429 wbs_dat_o[31]
*430 wbs_dat_o[3]
*431 wbs_dat_o[4]
*432 wbs_dat_o[5]
*433 wbs_dat_o[6]
*434 wbs_dat_o[7]
*435 wbs_dat_o[8]
*436 wbs_dat_o[9]
*437 wbs_sel_i[0]
*438 wbs_sel_i[1]
*439 wbs_sel_i[2]
*440 wbs_sel_i[3]
*441 wbs_stb_i
*442 wbs_we_i
*443 _000_
*444 _001_
*445 _002_
*446 _003_
*447 _004_
*448 _005_
*449 _006_
*450 _007_
*451 _008_
*452 _009_
*453 _010_
*454 _011_
*455 _012_
*456 _013_
*457 _014_
*458 _015_
*459 _016_
*460 _017_
*461 _018_
*462 _019_
*463 _020_
*464 _021_
*465 _022_
*466 _023_
*467 _024_
*468 _025_
*469 _026_
*470 _027_
*471 _028_
*472 _029_
*473 _030_
*474 _031_
*475 _032_
*476 _033_
*477 _034_
*478 _035_
*479 _036_
*480 _037_
*481 _038_
*482 _039_
*483 _040_
*484 _041_
*485 _042_
*486 _043_
*487 _044_
*488 _045_
*489 _046_
*490 _047_
*491 _048_
*492 _049_
*493 _050_
*494 _051_
*495 _052_
*496 _053_
*497 _054_
*498 _055_
*499 _056_
*500 _057_
*501 _058_
*502 _059_
*503 _060_
*504 _061_
*505 _062_
*506 _063_
*507 _064_
*508 _065_
*509 _066_
*510 _067_
*511 _068_
*512 _069_
*513 _070_
*514 _071_
*515 _072_
*516 _073_
*517 _074_
*518 _075_
*519 _076_
*520 _077_
*521 _078_
*522 _079_
*523 _080_
*524 _081_
*525 _082_
*526 _083_
*527 _084_
*528 _085_
*529 _086_
*530 _087_
*531 _088_
*532 _089_
*533 _090_
*534 _091_
*535 _092_
*536 _093_
*537 _094_
*538 _095_
*539 net1
*540 net10
*541 net100
*542 net101
*543 net102
*544 net103
*545 net104
*546 net105
*547 net106
*548 net107
*549 net108
*550 net109
*551 net11
*552 net110
*553 net111
*554 net112
*555 net113
*556 net114
*557 net115
*558 net116
*559 net117
*560 net118
*561 net119
*562 net12
*563 net120
*564 net121
*565 net122
*566 net123
*567 net124
*568 net125
*569 net13
*570 net14
*571 net15
*572 net16
*573 net17
*574 net18
*575 net19
*576 net2
*577 net20
*578 net21
*579 net22
*580 net23
*581 net24
*582 net25
*583 net26
*584 net27
*585 net28
*586 net29
*587 net3
*588 net30
*589 net31
*590 net32
*591 net33
*592 net34
*593 net35
*594 net36
*595 net37
*596 net38
*597 net39
*598 net4
*599 net40
*600 net41
*601 net42
*602 net43
*603 net44
*604 net45
*605 net46
*606 net47
*607 net48
*608 net49
*609 net5
*610 net50
*611 net51
*612 net52
*613 net53
*614 net54
*615 net55
*616 net56
*617 net57
*618 net58
*619 net59
*620 net6
*621 net60
*622 net61
*623 net62
*624 net63
*625 net64
*626 net65
*627 net66
*628 net67
*629 net68
*630 net69
*631 net7
*632 net70
*633 net71
*634 net72
*635 net73
*636 net74
*637 net75
*638 net76
*639 net77
*640 net78
*641 net79
*642 net8
*643 net80
*644 net81
*645 net82
*646 net83
*647 net84
*648 net85
*649 net86
*650 net87
*651 net88
*652 net89
*653 net9
*654 net90
*655 net91
*656 net92
*657 net93
*658 net94
*659 net95
*660 net96
*661 net97
*662 net98
*663 net99
*664 pwm_counter0\.count\[0\]
*665 pwm_counter0\.count\[1\]
*666 pwm_counter0\.count\[2\]
*667 pwm_counter0\.count\[3\]
*668 pwm_counter0\.count\[4\]
*669 pwm_counter0\.count\[5\]
*670 pwm_counter0\.count\[6\]
*671 pwm_counter0\.count\[7\]
*672 pwm_fall_detector\.pos\[0\]
*673 pwm_fall_detector\.pos\[1\]
*674 pwm_fall_detector\.pos\[2\]
*675 pwm_fall_detector\.pos\[3\]
*676 pwm_fall_detector\.pos\[4\]
*677 pwm_fall_detector\.pos\[5\]
*678 pwm_fall_detector\.pos\[6\]
*679 pwm_fall_detector\.pos\[7\]
*680 pwm_rise_detector\.pos\[0\]
*681 pwm_rise_detector\.pos\[1\]
*682 pwm_rise_detector\.pos\[2\]
*683 pwm_rise_detector\.pos\[3\]
*684 pwm_rise_detector\.pos\[4\]
*685 pwm_rise_detector\.pos\[5\]
*686 pwm_rise_detector\.pos\[6\]
*687 pwm_rise_detector\.pos\[7\]
*688 ANTENNA_1
*689 ANTENNA_2
*690 ANTENNA_3
*691 ANTENNA__103__A
*692 ANTENNA__124__B
*693 ANTENNA__129__A
*694 ANTENNA__131__A
*695 ANTENNA__133__B1
*696 ANTENNA__137__A
*697 ANTENNA__139__A
*698 ANTENNA__141__B1
*699 ANTENNA__143__A
*700 ANTENNA__143__B
*701 ANTENNA__143__C
*702 ANTENNA__143__D
*703 ANTENNA__144__A
*704 ANTENNA__144__B
*705 ANTENNA__144__C
*706 ANTENNA__144__D
*707 ANTENNA__145__A
*708 ANTENNA__145__B
*709 ANTENNA__145__C
*710 ANTENNA__145__D
*711 ANTENNA__146__B
*712 ANTENNA__146__C
*713 ANTENNA__147__A
*714 ANTENNA__147__B
*715 ANTENNA__147__C
*716 ANTENNA__147__D
*717 ANTENNA__148__A
*718 ANTENNA__148__B
*719 ANTENNA__148__C
*720 ANTENNA__148__D
*721 ANTENNA__149__A
*722 ANTENNA__149__B
*723 ANTENNA__149__C_N
*724 ANTENNA__149__D_N
*725 ANTENNA__150__A
*726 ANTENNA__150__B
*727 ANTENNA__150__C
*728 ANTENNA__150__D
*729 ANTENNA__151__C
*730 ANTENNA__151__D
*731 ANTENNA__152__A
*732 ANTENNA__152__B
*733 ANTENNA__153__A
*734 ANTENNA__153__B
*735 ANTENNA__153__C
*736 ANTENNA__153__D
*737 ANTENNA__154__A
*738 ANTENNA__154__B
*739 ANTENNA__154__C
*740 ANTENNA__154__D_N
*741 ANTENNA__155__A_N
*742 ANTENNA__155__C
*743 ANTENNA__156__A
*744 ANTENNA__157__A
*745 ANTENNA__157__B
*746 ANTENNA__157__C
*747 ANTENNA__158__B
*748 ANTENNA__158__C
*749 ANTENNA__159__A
*750 ANTENNA__160__A1
*751 ANTENNA__161__A1
*752 ANTENNA__162__A1
*753 ANTENNA__163__A1
*754 ANTENNA__164__A1
*755 ANTENNA__165__A1
*756 ANTENNA__166__A1
*757 ANTENNA__167__A1
*758 ANTENNA__168__A1
*759 ANTENNA__169__A1
*760 ANTENNA__170__A1
*761 ANTENNA__171__A1
*762 ANTENNA__172__A1
*763 ANTENNA__173__A1
*764 ANTENNA__174__A1
*765 ANTENNA__175__A1
*766 ANTENNA__176__B
*767 ANTENNA__176__C
*768 ANTENNA__177__A
*769 ANTENNA__178__A1
*770 ANTENNA__179__A1
*771 ANTENNA__180__A1
*772 ANTENNA__181__A1
*773 ANTENNA__182__A1
*774 ANTENNA__183__A1
*775 ANTENNA__184__A1
*776 ANTENNA__185__A1
*777 ANTENNA__186__A1
*778 ANTENNA__187__A1
*779 ANTENNA__188__A1
*780 ANTENNA__189__A1
*781 ANTENNA__190__A1
*782 ANTENNA__191__A1
*783 ANTENNA__192__A1
*784 ANTENNA__193__A1
*785 ANTENNA__194__CLK
*786 ANTENNA__195__CLK
*787 ANTENNA__196__CLK
*788 ANTENNA__197__CLK
*789 ANTENNA__198__CLK
*790 ANTENNA__199__CLK
*791 ANTENNA__200__CLK
*792 ANTENNA__201__CLK
*793 ANTENNA__202__CLK
*794 ANTENNA__203__CLK
*795 ANTENNA__204__CLK
*796 ANTENNA__205__CLK
*797 ANTENNA__206__CLK
*798 ANTENNA__207__CLK
*799 ANTENNA__208__CLK
*800 ANTENNA__209__CLK
*801 ANTENNA__210__CLK
*802 ANTENNA__211__CLK
*803 ANTENNA__212__CLK
*804 ANTENNA__213__CLK
*805 ANTENNA__214__CLK
*806 ANTENNA__215__CLK
*807 ANTENNA__216__CLK
*808 ANTENNA__217__CLK
*809 ANTENNA__218__CLK
*810 ANTENNA__219__A
*811 ANTENNA__219__A_125
*812 ANTENNA__220__A
*813 ANTENNA__220__A_97
*814 ANTENNA__221__A
*815 ANTENNA__221__A_96
*816 ANTENNA__222__A
*817 ANTENNA__222__A_95
*818 ANTENNA__223__A
*819 ANTENNA__223__A_124
*820 ANTENNA__224__A
*821 ANTENNA__224__A_94
*822 ANTENNA__225__A
*823 ANTENNA__225__A_93
*824 ANTENNA__226__A
*825 ANTENNA__226__A_92
*826 ANTENNA__227__A
*827 ANTENNA__227__A_123
*828 ANTENNA__228__A
*829 ANTENNA__228__A_122
*830 ANTENNA__229__A
*831 ANTENNA__229__A_91
*832 ANTENNA__230__A
*833 ANTENNA__230__A_90
*834 ANTENNA__231__A
*835 ANTENNA__231__A_121
*836 ANTENNA__232__A
*837 ANTENNA__232__A_120
*838 ANTENNA__233__A
*839 ANTENNA__233__A_89
*840 ANTENNA__234__A
*841 ANTENNA__234__A_88
*842 ANTENNA__235__A
*843 ANTENNA__235__A_119
*844 ANTENNA__236__A
*845 ANTENNA__236__A_87
*846 ANTENNA__237__A
*847 ANTENNA__237__A_118
*848 ANTENNA__238__A
*849 ANTENNA__238__A_86
*850 ANTENNA__239__A
*851 ANTENNA__239__A_117
*852 ANTENNA__240__A
*853 ANTENNA__240__A_85
*854 ANTENNA__241__A
*855 ANTENNA__241__A_116
*856 ANTENNA__242__A
*857 ANTENNA__242__A_84
*858 ANTENNA__243__A
*859 ANTENNA__243__A_83
*860 ANTENNA__244__A
*861 ANTENNA__244__A_115
*862 ANTENNA__245__A
*863 ANTENNA__245__A_82
*864 ANTENNA__246__A
*865 ANTENNA__246__A_114
*866 ANTENNA__247__A
*867 ANTENNA__247__A_81
*868 ANTENNA__248__A
*869 ANTENNA__248__A_113
*870 ANTENNA__249__A
*871 ANTENNA__249__A_80
*872 ANTENNA__250__A
*873 ANTENNA__250__A_112
*874 FILLER_0_0_10
*875 FILLER_0_0_1005
*876 FILLER_0_0_1009
*877 FILLER_0_0_1017
*878 FILLER_0_0_1022
*879 FILLER_0_0_1034
*880 FILLER_0_0_1037
*881 FILLER_0_0_1049
*882 FILLER_0_0_106
*883 FILLER_0_0_1061
*884 FILLER_0_0_1065
*885 FILLER_0_0_1077
*886 FILLER_0_0_1089
*887 FILLER_0_0_1093
*888 FILLER_0_0_1105
*889 FILLER_0_0_1117
*890 FILLER_0_0_1121
*891 FILLER_0_0_113
*892 FILLER_0_0_1133
*893 FILLER_0_0_1145
*894 FILLER_0_0_1149
*895 FILLER_0_0_1161
*896 FILLER_0_0_1173
*897 FILLER_0_0_1177
*898 FILLER_0_0_1189
*899 FILLER_0_0_1203
*900 FILLER_0_0_1205
*901 FILLER_0_0_1217
*902 FILLER_0_0_1229
*903 FILLER_0_0_1233
*904 FILLER_0_0_1241
*905 FILLER_0_0_1247
*906 FILLER_0_0_125
*907 FILLER_0_0_1251
*908 FILLER_0_0_1259
*909 FILLER_0_0_1261
*910 FILLER_0_0_1273
*911 FILLER_0_0_1285
*912 FILLER_0_0_1289
*913 FILLER_0_0_1295
*914 FILLER_0_0_1307
*915 FILLER_0_0_1315
*916 FILLER_0_0_1317
*917 FILLER_0_0_1329
*918 FILLER_0_0_1341
*919 FILLER_0_0_1345
*920 FILLER_0_0_135
*921 FILLER_0_0_1357
*922 FILLER_0_0_1369
*923 FILLER_0_0_1373
*924 FILLER_0_0_1385
*925 FILLER_0_0_139
*926 FILLER_0_0_1397
*927 FILLER_0_0_1401
*928 FILLER_0_0_141
*929 FILLER_0_0_1413
*930 FILLER_0_0_1425
*931 FILLER_0_0_1429
*932 FILLER_0_0_1441
*933 FILLER_0_0_1453
*934 FILLER_0_0_1457
*935 FILLER_0_0_1469
*936 FILLER_0_0_1481
*937 FILLER_0_0_1485
*938 FILLER_0_0_1497
*939 FILLER_0_0_1509
*940 FILLER_0_0_1513
*941 FILLER_0_0_1525
*942 FILLER_0_0_153
*943 FILLER_0_0_1537
*944 FILLER_0_0_1541
*945 FILLER_0_0_1549
*946 FILLER_0_0_1556
*947 FILLER_0_0_1569
*948 FILLER_0_0_1581
*949 FILLER_0_0_1595
*950 FILLER_0_0_1597
*951 FILLER_0_0_163
*952 FILLER_0_0_167
*953 FILLER_0_0_169
*954 FILLER_0_0_17
*955 FILLER_0_0_181
*956 FILLER_0_0_189
*957 FILLER_0_0_195
*958 FILLER_0_0_197
*959 FILLER_0_0_209
*960 FILLER_0_0_221
*961 FILLER_0_0_225
*962 FILLER_0_0_233
*963 FILLER_0_0_247
*964 FILLER_0_0_25
*965 FILLER_0_0_251
*966 FILLER_0_0_253
*967 FILLER_0_0_265
*968 FILLER_0_0_277
*969 FILLER_0_0_281
*970 FILLER_0_0_29
*971 FILLER_0_0_293
*972 FILLER_0_0_3
*973 FILLER_0_0_305
*974 FILLER_0_0_309
*975 FILLER_0_0_315
*976 FILLER_0_0_319
*977 FILLER_0_0_327
*978 FILLER_0_0_333
*979 FILLER_0_0_337
*980 FILLER_0_0_349
*981 FILLER_0_0_361
*982 FILLER_0_0_365
*983 FILLER_0_0_377
*984 FILLER_0_0_389
*985 FILLER_0_0_393
*986 FILLER_0_0_405
*987 FILLER_0_0_41
*988 FILLER_0_0_417
*989 FILLER_0_0_421
*990 FILLER_0_0_433
*991 FILLER_0_0_445
*992 FILLER_0_0_449
*993 FILLER_0_0_461
*994 FILLER_0_0_473
*995 FILLER_0_0_477
*996 FILLER_0_0_489
*997 FILLER_0_0_501
*998 FILLER_0_0_505
*999 FILLER_0_0_517
*1000 FILLER_0_0_529
*1001 FILLER_0_0_53
*1002 FILLER_0_0_533
*1003 FILLER_0_0_545
*1004 FILLER_0_0_557
*1005 FILLER_0_0_561
*1006 FILLER_0_0_57
*1007 FILLER_0_0_573
*1008 FILLER_0_0_585
*1009 FILLER_0_0_589
*1010 FILLER_0_0_601
*1011 FILLER_0_0_613
*1012 FILLER_0_0_617
*1013 FILLER_0_0_625
*1014 FILLER_0_0_637
*1015 FILLER_0_0_643
*1016 FILLER_0_0_645
*1017 FILLER_0_0_657
*1018 FILLER_0_0_669
*1019 FILLER_0_0_673
*1020 FILLER_0_0_685
*1021 FILLER_0_0_69
*1022 FILLER_0_0_697
*1023 FILLER_0_0_701
*1024 FILLER_0_0_713
*1025 FILLER_0_0_725
*1026 FILLER_0_0_729
*1027 FILLER_0_0_741
*1028 FILLER_0_0_753
*1029 FILLER_0_0_757
*1030 FILLER_0_0_769
*1031 FILLER_0_0_777
*1032 FILLER_0_0_783
*1033 FILLER_0_0_785
*1034 FILLER_0_0_797
*1035 FILLER_0_0_809
*1036 FILLER_0_0_81
*1037 FILLER_0_0_813
*1038 FILLER_0_0_825
*1039 FILLER_0_0_837
*1040 FILLER_0_0_841
*1041 FILLER_0_0_845
*1042 FILLER_0_0_849
*1043 FILLER_0_0_85
*1044 FILLER_0_0_861
*1045 FILLER_0_0_867
*1046 FILLER_0_0_869
*1047 FILLER_0_0_876
*1048 FILLER_0_0_888
*1049 FILLER_0_0_897
*1050 FILLER_0_0_902
*1051 FILLER_0_0_914
*1052 FILLER_0_0_922
*1053 FILLER_0_0_925
*1054 FILLER_0_0_937
*1055 FILLER_0_0_943
*1056 FILLER_0_0_946
*1057 FILLER_0_0_953
*1058 FILLER_0_0_965
*1059 FILLER_0_0_97
*1060 FILLER_0_0_977
*1061 FILLER_0_0_981
*1062 FILLER_0_0_993
*1063 FILLER_0_100_1005
*1064 FILLER_0_100_1017
*1065 FILLER_0_100_1029
*1066 FILLER_0_100_1035
*1067 FILLER_0_100_1037
*1068 FILLER_0_100_1049
*1069 FILLER_0_100_1061
*1070 FILLER_0_100_1073
*1071 FILLER_0_100_1085
*1072 FILLER_0_100_109
*1073 FILLER_0_100_1091
*1074 FILLER_0_100_1093
*1075 FILLER_0_100_1105
*1076 FILLER_0_100_1117
*1077 FILLER_0_100_1129
*1078 FILLER_0_100_1141
*1079 FILLER_0_100_1147
*1080 FILLER_0_100_1149
*1081 FILLER_0_100_1161
*1082 FILLER_0_100_1173
*1083 FILLER_0_100_1185
*1084 FILLER_0_100_1197
*1085 FILLER_0_100_1203
*1086 FILLER_0_100_1205
*1087 FILLER_0_100_121
*1088 FILLER_0_100_1217
*1089 FILLER_0_100_1229
*1090 FILLER_0_100_1241
*1091 FILLER_0_100_1253
*1092 FILLER_0_100_1259
*1093 FILLER_0_100_1261
*1094 FILLER_0_100_1273
*1095 FILLER_0_100_1285
*1096 FILLER_0_100_1297
*1097 FILLER_0_100_1309
*1098 FILLER_0_100_1315
*1099 FILLER_0_100_1317
*1100 FILLER_0_100_1329
*1101 FILLER_0_100_133
*1102 FILLER_0_100_1341
*1103 FILLER_0_100_1353
*1104 FILLER_0_100_1365
*1105 FILLER_0_100_1371
*1106 FILLER_0_100_1373
*1107 FILLER_0_100_1385
*1108 FILLER_0_100_139
*1109 FILLER_0_100_1397
*1110 FILLER_0_100_1409
*1111 FILLER_0_100_141
*1112 FILLER_0_100_1421
*1113 FILLER_0_100_1427
*1114 FILLER_0_100_1429
*1115 FILLER_0_100_1441
*1116 FILLER_0_100_1453
*1117 FILLER_0_100_1465
*1118 FILLER_0_100_1477
*1119 FILLER_0_100_1483
*1120 FILLER_0_100_1485
*1121 FILLER_0_100_1497
*1122 FILLER_0_100_15
*1123 FILLER_0_100_1509
*1124 FILLER_0_100_1521
*1125 FILLER_0_100_153
*1126 FILLER_0_100_1533
*1127 FILLER_0_100_1539
*1128 FILLER_0_100_1541
*1129 FILLER_0_100_1553
*1130 FILLER_0_100_1565
*1131 FILLER_0_100_1577
*1132 FILLER_0_100_1589
*1133 FILLER_0_100_1595
*1134 FILLER_0_100_1597
*1135 FILLER_0_100_165
*1136 FILLER_0_100_177
*1137 FILLER_0_100_189
*1138 FILLER_0_100_195
*1139 FILLER_0_100_197
*1140 FILLER_0_100_209
*1141 FILLER_0_100_221
*1142 FILLER_0_100_233
*1143 FILLER_0_100_245
*1144 FILLER_0_100_251
*1145 FILLER_0_100_253
*1146 FILLER_0_100_265
*1147 FILLER_0_100_27
*1148 FILLER_0_100_277
*1149 FILLER_0_100_289
*1150 FILLER_0_100_29
*1151 FILLER_0_100_3
*1152 FILLER_0_100_301
*1153 FILLER_0_100_307
*1154 FILLER_0_100_309
*1155 FILLER_0_100_321
*1156 FILLER_0_100_333
*1157 FILLER_0_100_345
*1158 FILLER_0_100_357
*1159 FILLER_0_100_363
*1160 FILLER_0_100_365
*1161 FILLER_0_100_377
*1162 FILLER_0_100_389
*1163 FILLER_0_100_401
*1164 FILLER_0_100_41
*1165 FILLER_0_100_413
*1166 FILLER_0_100_419
*1167 FILLER_0_100_421
*1168 FILLER_0_100_433
*1169 FILLER_0_100_445
*1170 FILLER_0_100_457
*1171 FILLER_0_100_469
*1172 FILLER_0_100_475
*1173 FILLER_0_100_477
*1174 FILLER_0_100_489
*1175 FILLER_0_100_501
*1176 FILLER_0_100_513
*1177 FILLER_0_100_525
*1178 FILLER_0_100_53
*1179 FILLER_0_100_531
*1180 FILLER_0_100_533
*1181 FILLER_0_100_545
*1182 FILLER_0_100_557
*1183 FILLER_0_100_569
*1184 FILLER_0_100_581
*1185 FILLER_0_100_587
*1186 FILLER_0_100_589
*1187 FILLER_0_100_601
*1188 FILLER_0_100_613
*1189 FILLER_0_100_625
*1190 FILLER_0_100_637
*1191 FILLER_0_100_643
*1192 FILLER_0_100_645
*1193 FILLER_0_100_65
*1194 FILLER_0_100_657
*1195 FILLER_0_100_669
*1196 FILLER_0_100_681
*1197 FILLER_0_100_693
*1198 FILLER_0_100_699
*1199 FILLER_0_100_701
*1200 FILLER_0_100_713
*1201 FILLER_0_100_725
*1202 FILLER_0_100_737
*1203 FILLER_0_100_749
*1204 FILLER_0_100_755
*1205 FILLER_0_100_757
*1206 FILLER_0_100_769
*1207 FILLER_0_100_77
*1208 FILLER_0_100_781
*1209 FILLER_0_100_793
*1210 FILLER_0_100_805
*1211 FILLER_0_100_811
*1212 FILLER_0_100_813
*1213 FILLER_0_100_825
*1214 FILLER_0_100_83
*1215 FILLER_0_100_837
*1216 FILLER_0_100_849
*1217 FILLER_0_100_85
*1218 FILLER_0_100_861
*1219 FILLER_0_100_867
*1220 FILLER_0_100_869
*1221 FILLER_0_100_881
*1222 FILLER_0_100_893
*1223 FILLER_0_100_905
*1224 FILLER_0_100_917
*1225 FILLER_0_100_923
*1226 FILLER_0_100_925
*1227 FILLER_0_100_937
*1228 FILLER_0_100_949
*1229 FILLER_0_100_961
*1230 FILLER_0_100_97
*1231 FILLER_0_100_973
*1232 FILLER_0_100_979
*1233 FILLER_0_100_981
*1234 FILLER_0_100_993
*1235 FILLER_0_101_1001
*1236 FILLER_0_101_1007
*1237 FILLER_0_101_1009
*1238 FILLER_0_101_1021
*1239 FILLER_0_101_1033
*1240 FILLER_0_101_1045
*1241 FILLER_0_101_105
*1242 FILLER_0_101_1057
*1243 FILLER_0_101_1063
*1244 FILLER_0_101_1065
*1245 FILLER_0_101_1077
*1246 FILLER_0_101_1089
*1247 FILLER_0_101_1101
*1248 FILLER_0_101_111
*1249 FILLER_0_101_1113
*1250 FILLER_0_101_1119
*1251 FILLER_0_101_1121
*1252 FILLER_0_101_113
*1253 FILLER_0_101_1133
*1254 FILLER_0_101_1145
*1255 FILLER_0_101_1157
*1256 FILLER_0_101_1169
*1257 FILLER_0_101_1175
*1258 FILLER_0_101_1177
*1259 FILLER_0_101_1189
*1260 FILLER_0_101_1201
*1261 FILLER_0_101_1213
*1262 FILLER_0_101_1225
*1263 FILLER_0_101_1231
*1264 FILLER_0_101_1233
*1265 FILLER_0_101_1245
*1266 FILLER_0_101_125
*1267 FILLER_0_101_1257
*1268 FILLER_0_101_1269
*1269 FILLER_0_101_1281
*1270 FILLER_0_101_1287
*1271 FILLER_0_101_1289
*1272 FILLER_0_101_1301
*1273 FILLER_0_101_1313
*1274 FILLER_0_101_1325
*1275 FILLER_0_101_1337
*1276 FILLER_0_101_1343
*1277 FILLER_0_101_1345
*1278 FILLER_0_101_1357
*1279 FILLER_0_101_1369
*1280 FILLER_0_101_137
*1281 FILLER_0_101_1381
*1282 FILLER_0_101_1393
*1283 FILLER_0_101_1399
*1284 FILLER_0_101_1401
*1285 FILLER_0_101_1413
*1286 FILLER_0_101_1425
*1287 FILLER_0_101_1437
*1288 FILLER_0_101_1449
*1289 FILLER_0_101_1455
*1290 FILLER_0_101_1457
*1291 FILLER_0_101_1469
*1292 FILLER_0_101_1481
*1293 FILLER_0_101_149
*1294 FILLER_0_101_1493
*1295 FILLER_0_101_15
*1296 FILLER_0_101_1505
*1297 FILLER_0_101_1511
*1298 FILLER_0_101_1513
*1299 FILLER_0_101_1525
*1300 FILLER_0_101_1537
*1301 FILLER_0_101_1549
*1302 FILLER_0_101_1561
*1303 FILLER_0_101_1567
*1304 FILLER_0_101_1569
*1305 FILLER_0_101_1581
*1306 FILLER_0_101_1593
*1307 FILLER_0_101_1601
*1308 FILLER_0_101_161
*1309 FILLER_0_101_167
*1310 FILLER_0_101_169
*1311 FILLER_0_101_181
*1312 FILLER_0_101_193
*1313 FILLER_0_101_205
*1314 FILLER_0_101_217
*1315 FILLER_0_101_223
*1316 FILLER_0_101_225
*1317 FILLER_0_101_237
*1318 FILLER_0_101_249
*1319 FILLER_0_101_261
*1320 FILLER_0_101_27
*1321 FILLER_0_101_273
*1322 FILLER_0_101_279
*1323 FILLER_0_101_281
*1324 FILLER_0_101_293
*1325 FILLER_0_101_3
*1326 FILLER_0_101_305
*1327 FILLER_0_101_317
*1328 FILLER_0_101_329
*1329 FILLER_0_101_335
*1330 FILLER_0_101_337
*1331 FILLER_0_101_349
*1332 FILLER_0_101_361
*1333 FILLER_0_101_373
*1334 FILLER_0_101_385
*1335 FILLER_0_101_39
*1336 FILLER_0_101_391
*1337 FILLER_0_101_393
*1338 FILLER_0_101_405
*1339 FILLER_0_101_417
*1340 FILLER_0_101_429
*1341 FILLER_0_101_441
*1342 FILLER_0_101_447
*1343 FILLER_0_101_449
*1344 FILLER_0_101_461
*1345 FILLER_0_101_473
*1346 FILLER_0_101_485
*1347 FILLER_0_101_497
*1348 FILLER_0_101_503
*1349 FILLER_0_101_505
*1350 FILLER_0_101_51
*1351 FILLER_0_101_517
*1352 FILLER_0_101_529
*1353 FILLER_0_101_541
*1354 FILLER_0_101_55
*1355 FILLER_0_101_553
*1356 FILLER_0_101_559
*1357 FILLER_0_101_561
*1358 FILLER_0_101_57
*1359 FILLER_0_101_573
*1360 FILLER_0_101_585
*1361 FILLER_0_101_597
*1362 FILLER_0_101_609
*1363 FILLER_0_101_615
*1364 FILLER_0_101_617
*1365 FILLER_0_101_629
*1366 FILLER_0_101_641
*1367 FILLER_0_101_653
*1368 FILLER_0_101_665
*1369 FILLER_0_101_671
*1370 FILLER_0_101_673
*1371 FILLER_0_101_685
*1372 FILLER_0_101_69
*1373 FILLER_0_101_697
*1374 FILLER_0_101_709
*1375 FILLER_0_101_721
*1376 FILLER_0_101_727
*1377 FILLER_0_101_729
*1378 FILLER_0_101_741
*1379 FILLER_0_101_753
*1380 FILLER_0_101_765
*1381 FILLER_0_101_777
*1382 FILLER_0_101_783
*1383 FILLER_0_101_785
*1384 FILLER_0_101_797
*1385 FILLER_0_101_809
*1386 FILLER_0_101_81
*1387 FILLER_0_101_821
*1388 FILLER_0_101_833
*1389 FILLER_0_101_839
*1390 FILLER_0_101_841
*1391 FILLER_0_101_853
*1392 FILLER_0_101_865
*1393 FILLER_0_101_877
*1394 FILLER_0_101_889
*1395 FILLER_0_101_895
*1396 FILLER_0_101_897
*1397 FILLER_0_101_909
*1398 FILLER_0_101_921
*1399 FILLER_0_101_93
*1400 FILLER_0_101_933
*1401 FILLER_0_101_945
*1402 FILLER_0_101_951
*1403 FILLER_0_101_953
*1404 FILLER_0_101_965
*1405 FILLER_0_101_977
*1406 FILLER_0_101_989
*1407 FILLER_0_102_1005
*1408 FILLER_0_102_1017
*1409 FILLER_0_102_1029
*1410 FILLER_0_102_1035
*1411 FILLER_0_102_1037
*1412 FILLER_0_102_1049
*1413 FILLER_0_102_1061
*1414 FILLER_0_102_1073
*1415 FILLER_0_102_1085
*1416 FILLER_0_102_109
*1417 FILLER_0_102_1091
*1418 FILLER_0_102_1093
*1419 FILLER_0_102_1105
*1420 FILLER_0_102_1117
*1421 FILLER_0_102_1129
*1422 FILLER_0_102_1141
*1423 FILLER_0_102_1147
*1424 FILLER_0_102_1149
*1425 FILLER_0_102_1161
*1426 FILLER_0_102_1173
*1427 FILLER_0_102_1185
*1428 FILLER_0_102_1197
*1429 FILLER_0_102_1203
*1430 FILLER_0_102_1205
*1431 FILLER_0_102_121
*1432 FILLER_0_102_1217
*1433 FILLER_0_102_1229
*1434 FILLER_0_102_1241
*1435 FILLER_0_102_1253
*1436 FILLER_0_102_1259
*1437 FILLER_0_102_1261
*1438 FILLER_0_102_1273
*1439 FILLER_0_102_1285
*1440 FILLER_0_102_1297
*1441 FILLER_0_102_1309
*1442 FILLER_0_102_1315
*1443 FILLER_0_102_1317
*1444 FILLER_0_102_1329
*1445 FILLER_0_102_133
*1446 FILLER_0_102_1341
*1447 FILLER_0_102_1353
*1448 FILLER_0_102_1365
*1449 FILLER_0_102_1371
*1450 FILLER_0_102_1373
*1451 FILLER_0_102_1385
*1452 FILLER_0_102_139
*1453 FILLER_0_102_1397
*1454 FILLER_0_102_1409
*1455 FILLER_0_102_141
*1456 FILLER_0_102_1421
*1457 FILLER_0_102_1427
*1458 FILLER_0_102_1429
*1459 FILLER_0_102_1441
*1460 FILLER_0_102_1453
*1461 FILLER_0_102_1465
*1462 FILLER_0_102_1477
*1463 FILLER_0_102_1483
*1464 FILLER_0_102_1485
*1465 FILLER_0_102_1497
*1466 FILLER_0_102_15
*1467 FILLER_0_102_1509
*1468 FILLER_0_102_1521
*1469 FILLER_0_102_153
*1470 FILLER_0_102_1533
*1471 FILLER_0_102_1539
*1472 FILLER_0_102_1541
*1473 FILLER_0_102_1553
*1474 FILLER_0_102_1565
*1475 FILLER_0_102_1577
*1476 FILLER_0_102_1589
*1477 FILLER_0_102_1595
*1478 FILLER_0_102_1597
*1479 FILLER_0_102_165
*1480 FILLER_0_102_177
*1481 FILLER_0_102_189
*1482 FILLER_0_102_195
*1483 FILLER_0_102_197
*1484 FILLER_0_102_209
*1485 FILLER_0_102_221
*1486 FILLER_0_102_233
*1487 FILLER_0_102_245
*1488 FILLER_0_102_251
*1489 FILLER_0_102_253
*1490 FILLER_0_102_265
*1491 FILLER_0_102_27
*1492 FILLER_0_102_277
*1493 FILLER_0_102_289
*1494 FILLER_0_102_29
*1495 FILLER_0_102_3
*1496 FILLER_0_102_301
*1497 FILLER_0_102_307
*1498 FILLER_0_102_309
*1499 FILLER_0_102_321
*1500 FILLER_0_102_333
*1501 FILLER_0_102_345
*1502 FILLER_0_102_357
*1503 FILLER_0_102_363
*1504 FILLER_0_102_365
*1505 FILLER_0_102_377
*1506 FILLER_0_102_389
*1507 FILLER_0_102_401
*1508 FILLER_0_102_41
*1509 FILLER_0_102_413
*1510 FILLER_0_102_419
*1511 FILLER_0_102_421
*1512 FILLER_0_102_433
*1513 FILLER_0_102_445
*1514 FILLER_0_102_457
*1515 FILLER_0_102_469
*1516 FILLER_0_102_475